44
 OpenBabel02232411163D
Structure written by MMmdl.
 44 47  0  0  0  0  0  0  0  0999 V2000
    3.4640  -48.2190    7.2690 O   0  0  0  0  0  0  0  0  0  0  0  0
    3.1760  -49.3040    6.7520 C   0  0  0  0  0  0  0  0  0  0  0  0
    3.9660  -50.1870    6.3650 O   0  5  0  0  0  0  0  0  0  0  0  0
    1.6850  -49.6540    6.5510 C   0  0  0  0  0  0  0  0  0  0  0  0
   -0.1470  -51.0230    6.6570 C   0  0  0  0  0  0  0  0  0  0  0  0
   -1.0740  -52.0380    6.9430 C   0  0  0  0  0  0  0  0  0  0  0  0
   -2.3710  -51.8720    6.4770 C   0  0  0  0  0  0  0  0  0  0  0  0
   -2.7300  -50.7410    5.7090 C   0  0  0  0  0  0  0  0  0  0  0  0
   -1.8090  -49.7510    5.3960 C   0  0  0  0  0  0  0  0  0  0  0  0
   -0.5050  -49.8390    5.9120 C   0  0  0  0  0  0  0  0  0  0  0  0
    0.6560  -48.9750    5.9040 C   0  0  0  0  0  0  0  0  0  0  0  0
    0.6710  -47.5870    5.3670 C   0  0  0  0  0  0  0  0  0  0  0  0
   -0.0050  -46.5710    6.3140 C   0  0  0  0  0  0  0  0  0  0  0  0
   -1.5150  -46.7880    6.3430 C   0  0  0  0  0  0  0  0  0  0  0  0
   -2.0530  -45.7550    7.2500 O   0  0  0  0  0  0  0  0  0  0  0  0
   -3.3360  -45.3480    6.9740 C   0  0  0  0  0  0  0  0  0  0  0  0
   -5.9200  -44.3730    6.6820 C   0  0  0  0  0  0  0  0  0  0  0  0
   -5.0010  -44.1540    5.6870 C   0  0  0  0  0  0  0  0  0  0  0  0
   -3.6790  -44.6490    5.8360 C   0  0  0  0  0  0  0  0  0  0  0  0
   -0.7970  -52.9230    7.5160 H   0  0  0  0  0  0  0  0  0  0  0  0
   -3.1310  -52.6220    6.6990 H   0  0  0  0  0  0  0  0  0  0  0  0
   -3.7600  -50.6490    5.3590 H   0  0  0  0  0  0  0  0  0  0  0  0
   -2.1060  -48.9270    4.7480 H   0  0  0  0  0  0  0  0  0  0  0  0
    0.1230  -47.5620    4.3950 H   0  0  0  0  0  0  0  0  0  0  0  0
    1.7210  -47.2450    5.1900 H   0  0  0  0  0  0  0  0  0  0  0  0
    0.3990  -46.6750    7.3470 H   0  0  0  0  0  0  0  0  0  0  0  0
    0.2070  -45.5340    5.9650 H   0  0  0  0  0  0  0  0  0  0  0  0
   -1.9870  -46.6810    5.3450 H   0  0  0  0  0  0  0  0  0  0  0  0
   -1.8030  -47.7370    6.8520 H   0  0  0  0  0  0  0  0  0  0  0  0
   -2.9750  -44.4520    5.0360 H   0  0  0  0  0  0  0  0  0  0  0  0
   -5.6070  -45.0820    7.8850 C   0  0  0  0  0  0  0  0  0  0  0  0
   -4.3020  -45.6260    8.0090 C   0  0  0  0  0  0  0  0  0  0  0  0
   -3.9910  -46.4700    9.1160 C   0  0  0  0  0  0  0  0  0  0  0  0
   -4.9320  -46.7060   10.0880 C   0  0  0  0  0  0  0  0  0  0  0  0
   -6.2040  -46.0730   10.0180 C   0  0  0  0  0  0  0  0  0  0  0  0
   -6.5450  -45.2940    8.9390 C   0  0  0  0  0  0  0  0  0  0  0  0
   -2.9970  -46.9250    9.1660 H   0  0  0  0  0  0  0  0  0  0  0  0
   -4.7300  -47.3950   10.9060 H   0  0  0  0  0  0  0  0  0  0  0  0
   -6.9180  -46.2300   10.8260 H   0  0  0  0  0  0  0  0  0  0  0  0
   -7.5400  -44.8500    8.8790 H   0  0  0  0  0  0  0  0  0  0  0  0
   -5.2630  -43.6130    4.7740 H   0  0  0  0  0  0  0  0  0  0  0  0
   -7.5410  -43.8220    6.4480 Cl  0  0  0  0  0  0  0  0  0  0  0  0
    1.2040  -50.8930    7.0170 N   0  0  0  0  0  0  0  0  0  0  0  0
    1.7190  -51.6090    7.5160 H   0  0  0  0  0  0  0  0  0  0  0  0
  1  2  2  0  0  0  0
  2  3  1  0  0  0  0
  2  4  1  0  0  0  0
  4 11  2  0  0  0  0
  4 43  1  0  0  0  0
  5  6  2  0  0  0  0
  5 10  1  0  0  0  0
  5 43  1  0  0  0  0
  6  7  1  0  0  0  0
  6 20  1  0  0  0  0
  7  8  2  0  0  0  0
  7 21  1  0  0  0  0
  8  9  1  0  0  0  0
  8 22  1  0  0  0  0
  9 10  2  0  0  0  0
  9 23  1  0  0  0  0
 10 11  1  0  0  0  0
 11 12  1  0  0  0  0
 12 24  1  0  0  0  0
 12 25  1  0  0  0  0
 12 13  1  0  0  0  0
 13 14  1  0  0  0  0
 13 26  1  0  0  0  0
 13 27  1  0  0  0  0
 14 15  1  0  0  0  0
 14 28  1  0  0  0  0
 14 29  1  0  0  0  0
 15 16  1  0  0  0  0
 16 19  2  0  0  0  0
 16 32  1  0  0  0  0
 17 18  2  0  0  0  0
 17 31  1  0  0  0  0
 17 42  1  0  0  0  0
 18 19  1  0  0  0  0
 18 41  1  0  0  0  0
 19 30  1  0  0  0  0
 31 32  2  0  0  0  0
 31 36  1  0  0  0  0
 32 33  1  0  0  0  0
 33 34  2  0  0  0  0
 33 37  1  0  0  0  0
 34 35  1  0  0  0  0
 34 38  1  0  0  0  0
 35 36  2  0  0  0  0
 35 39  1  0  0  0  0
 36 40  1  0  0  0  0
 43 44  1  0  0  0  0
M  CHG  1   3  -1
M  END
$$$$
