45
 OpenBabel02232411163D
Structure written by MMmdl.
 48 51  0  0  0  0  0  0  0  0999 V2000
    3.6110  -49.8450    5.8130 O   0  0  0  0  0  0  0  0  0  0  0  0
    2.8910  -49.0250    6.4180 C   0  0  0  0  0  0  0  0  0  0  0  0
    3.2720  -48.0370    7.0590 O   0  5  0  0  0  0  0  0  0  0  0  0
    1.3830  -49.3450    6.3640 C   0  0  0  0  0  0  0  0  0  0  0  0
   -0.4300  -50.7360    6.5460 C   0  0  0  0  0  0  0  0  0  0  0  0
   -1.3130  -51.8060    6.7710 C   0  0  0  0  0  0  0  0  0  0  0  0
   -2.6560  -51.5930    6.4980 C   0  0  0  0  0  0  0  0  0  0  0  0
   -3.1200  -50.3470    6.0130 C   0  0  0  0  0  0  0  0  0  0  0  0
   -2.2530  -49.2840    5.7950 C   0  0  0  0  0  0  0  0  0  0  0  0
   -0.8840  -49.4570    6.0610 C   0  0  0  0  0  0  0  0  0  0  0  0
    0.2790  -48.5990    5.9670 C   0  0  0  0  0  0  0  0  0  0  0  0
    0.2080  -47.1870    5.5090 C   0  0  0  0  0  0  0  0  0  0  0  0
    0.1720  -46.1680    6.6620 C   0  0  0  0  0  0  0  0  0  0  0  0
   -1.0130  -46.3130    7.6110 C   0  0  0  0  0  0  0  0  0  0  0  0
   -2.1770  -45.7320    6.9130 O   0  0  0  0  0  0  0  0  0  0  0  0
   -3.3740  -45.7300    7.5830 C   0  0  0  0  0  0  0  0  0  0  0  0
   -5.9010  -45.5920    8.7560 C   0  0  0  0  0  0  0  0  0  0  0  0
   -4.8870  -46.3240    9.3630 C   0  0  0  0  0  0  0  0  0  0  0  0
   -3.6150  -46.4050    8.7870 C   0  0  0  0  0  0  0  0  0  0  0  0
   -0.9650  -52.7680    7.1470 H   0  0  0  0  0  0  0  0  0  0  0  0
   -3.3790  -52.3940    6.6600 H   0  0  0  0  0  0  0  0  0  0  0  0
   -4.1850  -50.2280    5.8100 H   0  0  0  0  0  0  0  0  0  0  0  0
   -2.6380  -48.3310    5.4300 H   0  0  0  0  0  0  0  0  0  0  0  0
   -0.7260  -47.0550    4.9020 H   0  0  0  0  0  0  0  0  0  0  0  0
    1.0850  -46.9410    4.8630 H   0  0  0  0  0  0  0  0  0  0  0  0
    0.1490  -45.1410    6.2310 H   0  0  0  0  0  0  0  0  0  0  0  0
    1.0970  -46.2900    7.2790 H   0  0  0  0  0  0  0  0  0  0  0  0
   -0.8720  -45.6930    8.5230 H   0  0  0  0  0  0  0  0  0  0  0  0
   -1.2560  -47.3740    7.8240 H   0  0  0  0  0  0  0  0  0  0  0  0
   -2.8560  -46.9960    9.2880 H   0  0  0  0  0  0  0  0  0  0  0  0
   -5.6670  -44.9380    7.5280 C   0  0  0  0  0  0  0  0  0  0  0  0
   -4.4000  -44.9830    6.9390 C   0  0  0  0  0  0  0  0  0  0  0  0
   -4.1110  -44.2780    5.6470 C   0  0  0  0  0  0  0  0  0  0  0  0
   -5.3700  -44.0930    4.7930 C   0  0  0  0  0  0  0  0  0  0  0  0
   -6.5120  -43.4650    5.5970 C   0  0  0  0  0  0  0  0  0  0  0  0
   -6.8410  -44.2670    6.8650 C   0  0  0  0  0  0  0  0  0  0  0  0
   -5.0930  -46.8520   10.2950 H   0  0  0  0  0  0  0  0  0  0  0  0
   -6.8860  -45.5400    9.2130 H   0  0  0  0  0  0  0  0  0  0  0  0
   -3.3620  -44.8650    5.0610 H   0  0  0  0  0  0  0  0  0  0  0  0
   -3.6900  -43.2680    5.8690 H   0  0  0  0  0  0  0  0  0  0  0  0
   -5.7100  -45.0810    4.4140 H   0  0  0  0  0  0  0  0  0  0  0  0
   -5.1190  -43.4330    3.9330 H   0  0  0  0  0  0  0  0  0  0  0  0
   -6.2350  -42.4250    5.8730 H   0  0  0  0  0  0  0  0  0  0  0  0
   -7.4210  -43.4370    4.9540 H   0  0  0  0  0  0  0  0  0  0  0  0
   -7.3370  -43.5870    7.5980 H   0  0  0  0  0  0  0  0  0  0  0  0
   -7.5710  -45.0750    6.5940 H   0  0  0  0  0  0  0  0  0  0  0  0
    0.9590  -50.6400    6.7290 N   0  0  0  0  0  0  0  0  0  0  0  0
    1.5350  -51.4140    7.0390 H   0  0  0  0  0  0  0  0  0  0  0  0
  1  2  2  0  0  0  0
  2  3  1  0  0  0  0
  2  4  1  0  0  0  0
  4 11  2  0  0  0  0
  4 47  1  0  0  0  0
  5  6  2  0  0  0  0
  5 10  1  0  0  0  0
  5 47  1  0  0  0  0
  6  7  1  0  0  0  0
  6 20  1  0  0  0  0
  7  8  2  0  0  0  0
  7 21  1  0  0  0  0
  8  9  1  0  0  0  0
  8 22  1  0  0  0  0
  9 10  2  0  0  0  0
  9 23  1  0  0  0  0
 10 11  1  0  0  0  0
 11 12  1  0  0  0  0
 12 24  1  0  0  0  0
 12 25  1  0  0  0  0
 12 13  1  0  0  0  0
 13 14  1  0  0  0  0
 13 26  1  0  0  0  0
 13 27  1  0  0  0  0
 14 15  1  0  0  0  0
 14 28  1  0  0  0  0
 14 29  1  0  0  0  0
 15 16  1  0  0  0  0
 16 19  2  0  0  0  0
 16 32  1  0  0  0  0
 17 18  2  0  0  0  0
 17 31  1  0  0  0  0
 17 38  1  0  0  0  0
 18 19  1  0  0  0  0
 18 37  1  0  0  0  0
 19 30  1  0  0  0  0
 31 32  2  0  0  0  0
 31 36  1  0  0  0  0
 32 33  1  0  0  0  0
 33 34  1  0  0  0  0
 33 39  1  0  0  0  0
 33 40  1  0  0  0  0
 34 35  1  0  0  0  0
 34 41  1  0  0  0  0
 34 42  1  0  0  0  0
 35 36  1  0  0  0  0
 35 43  1  0  0  0  0
 35 44  1  0  0  0  0
 36 45  1  0  0  0  0
 36 46  1  0  0  0  0
 47 48  1  0  0  0  0
M  CHG  1   3  -1
M  END
$$$$
