45
 OpenBabel02232411163D
Structure written by MMmdl.
 48 51  0  0  0  0  0  0  0  0999 V2000
    3.7430  -49.9650    5.6380 O   0  0  0  0  0  0  0  0  0  0  0  0
    3.0070  -49.2120    6.3080 C   0  0  0  0  0  0  0  0  0  0  0  0
    3.3730  -48.2710    7.0240 O   0  5  0  0  0  0  0  0  0  0  0  0
    1.5070  -49.5580    6.2400 C   0  0  0  0  0  0  0  0  0  0  0  0
   -0.2720  -51.0060    6.2830 C   0  0  0  0  0  0  0  0  0  0  0  0
   -1.1300  -52.1130    6.4100 C   0  0  0  0  0  0  0  0  0  0  0  0
   -2.4920  -51.8830    6.2770 C   0  0  0  0  0  0  0  0  0  0  0  0
   -2.9970  -50.5880    6.0100 C   0  0  0  0  0  0  0  0  0  0  0  0
   -2.1550  -49.4920    5.8830 C   0  0  0  0  0  0  0  0  0  0  0  0
   -0.7710  -49.6790    6.0270 C   0  0  0  0  0  0  0  0  0  0  0  0
    0.3720  -48.7890    6.0170 C   0  0  0  0  0  0  0  0  0  0  0  0
    0.2230  -47.3130    5.8970 C   0  0  0  0  0  0  0  0  0  0  0  0
   -0.2350  -46.7580    7.2620 C   0  0  0  0  0  0  0  0  0  0  0  0
   -0.9330  -45.4060    7.2010 C   0  0  0  0  0  0  0  0  0  0  0  0
   -2.2670  -45.5020    6.6040 O   0  0  0  0  0  0  0  0  0  0  0  0
   -3.3550  -45.6260    7.4380 C   0  0  0  0  0  0  0  0  0  0  0  0
   -5.7070  -45.8160    8.9150 C   0  0  0  0  0  0  0  0  0  0  0  0
   -4.5510  -46.4490    9.3570 C   0  0  0  0  0  0  0  0  0  0  0  0
   -3.3610  -46.3610    8.6260 C   0  0  0  0  0  0  0  0  0  0  0  0
   -0.7490  -53.1130    6.6140 H   0  0  0  0  0  0  0  0  0  0  0  0
   -3.1990  -52.7060    6.3850 H   0  0  0  0  0  0  0  0  0  0  0  0
   -4.0750  -50.4570    5.9060 H   0  0  0  0  0  0  0  0  0  0  0  0
   -2.5710  -48.5020    5.6840 H   0  0  0  0  0  0  0  0  0  0  0  0
   -0.5660  -47.0810    5.1350 H   0  0  0  0  0  0  0  0  0  0  0  0
    1.1710  -46.8200    5.5840 H   0  0  0  0  0  0  0  0  0  0  0  0
   -0.9440  -47.4920    7.7160 H   0  0  0  0  0  0  0  0  0  0  0  0
    0.6520  -46.6550    7.9270 H   0  0  0  0  0  0  0  0  0  0  0  0
   -0.4550  -44.7170    6.4700 H   0  0  0  0  0  0  0  0  0  0  0  0
   -1.0290  -44.9410    8.2050 H   0  0  0  0  0  0  0  0  0  0  0  0
   -2.4780  -46.8750    8.9880 H   0  0  0  0  0  0  0  0  0  0  0  0
   -5.7050  -45.0950    7.7020 C   0  0  0  0  0  0  0  0  0  0  0  0
   -4.5240  -44.9740    6.9630 C   0  0  0  0  0  0  0  0  0  0  0  0
   -4.4820  -44.1850    5.6900 C   0  0  0  0  0  0  0  0  0  0  0  0
   -5.8340  -44.1820    4.9700 C   0  0  0  0  0  0  0  0  0  0  0  0
   -6.9810  -43.7570    5.8940 C   0  0  0  0  0  0  0  0  0  0  0  0
   -7.0100  -44.5110    7.2340 C   0  0  0  0  0  0  0  0  0  0  0  0
   -4.5740  -47.0310   10.2790 H   0  0  0  0  0  0  0  0  0  0  0  0
   -6.6250  -45.8880    9.4930 H   0  0  0  0  0  0  0  0  0  0  0  0
   -3.7100  -44.6160    5.0050 H   0  0  0  0  0  0  0  0  0  0  0  0
   -4.2020  -43.1300    5.9280 H   0  0  0  0  0  0  0  0  0  0  0  0
   -6.0550  -45.2000    4.5790 H   0  0  0  0  0  0  0  0  0  0  0  0
   -5.7670  -43.4690    4.1200 H   0  0  0  0  0  0  0  0  0  0  0  0
   -6.9030  -42.6630    6.0830 H   0  0  0  0  0  0  0  0  0  0  0  0
   -7.9450  -43.9560    5.3690 H   0  0  0  0  0  0  0  0  0  0  0  0
   -7.3830  -43.8160    8.0240 H   0  0  0  0  0  0  0  0  0  0  0  0
   -7.7390  -45.3590    7.1420 H   0  0  0  0  0  0  0  0  0  0  0  0
    1.1230  -50.9080    6.4030 N   0  0  0  0  0  0  0  0  0  0  0  0
    1.7270  -51.7070    6.5570 H   0  0  0  0  0  0  0  0  0  0  0  0
  1  2  2  0  0  0  0
  2  3  1  0  0  0  0
  2  4  1  0  0  0  0
  4 11  2  0  0  0  0
  4 47  1  0  0  0  0
  5  6  2  0  0  0  0
  5 10  1  0  0  0  0
  5 47  1  0  0  0  0
  6  7  1  0  0  0  0
  6 20  1  0  0  0  0
  7  8  2  0  0  0  0
  7 21  1  0  0  0  0
  8  9  1  0  0  0  0
  8 22  1  0  0  0  0
  9 10  2  0  0  0  0
  9 23  1  0  0  0  0
 10 11  1  0  0  0  0
 11 12  1  0  0  0  0
 12 24  1  0  0  0  0
 12 25  1  0  0  0  0
 12 13  1  0  0  0  0
 13 14  1  0  0  0  0
 13 26  1  0  0  0  0
 13 27  1  0  0  0  0
 14 15  1  0  0  0  0
 14 28  1  0  0  0  0
 14 29  1  0  0  0  0
 15 16  1  0  0  0  0
 16 19  2  0  0  0  0
 16 32  1  0  0  0  0
 17 18  2  0  0  0  0
 17 31  1  0  0  0  0
 17 38  1  0  0  0  0
 18 19  1  0  0  0  0
 18 37  1  0  0  0  0
 19 30  1  0  0  0  0
 31 32  2  0  0  0  0
 31 36  1  0  0  0  0
 32 33  1  0  0  0  0
 33 34  1  0  0  0  0
 33 39  1  0  0  0  0
 33 40  1  0  0  0  0
 34 35  1  0  0  0  0
 34 41  1  0  0  0  0
 34 42  1  0  0  0  0
 35 36  1  0  0  0  0
 35 43  1  0  0  0  0
 35 44  1  0  0  0  0
 36 45  1  0  0  0  0
 36 46  1  0  0  0  0
 47 48  1  0  0  0  0
M  CHG  1   3  -1
M  END
$$$$
