18639-1
 OpenBabel02232411163D
Structure written by MMmdl.
 48 49  0  0  0  0  0  0  0  0999 V2000
   24.4490   10.8790   30.7470 C   0  0  0  0  0  0  0  0  0  0  0  0
   23.1250   11.2540   30.1160 C   0  0  0  0  0  0  0  0  0  0  0  0
   22.0520   11.3170   31.1310 O   0  0  0  0  0  0  0  0  0  0  0  0
   21.4620   10.1700   31.5390 C   0  0  0  0  0  0  0  0  0  0  0  0
   21.9400    8.9790   31.1070 N   0  0  0  0  0  0  0  0  0  0  0  0
   21.2430    7.8390   31.4750 C   0  0  0  0  0  0  0  0  0  0  0  0
   20.1050    7.8740   32.2730 C   0  0  0  0  0  0  0  0  0  0  0  0
   19.6170    9.1280   32.7320 C   0  0  0  0  0  0  0  0  0  0  0  0
   18.4820    9.1680   33.5000 N   0  0  0  0  0  0  0  0  0  0  0  0
   20.3090   10.3260   32.3660 C   0  0  0  0  0  0  0  0  0  0  0  0
   19.8950   11.6260   32.7260 C   0  0  0  0  0  0  0  0  0  0  0  0
   19.6050   12.7210   32.9780 N   0  0  0  0  0  0  0  0  0  0  0  0
   21.8310    6.6740   30.9280 N   0  0  0  0  0  0  0  0  0  0  0  0
   21.2720    5.3810   30.8850 C   0  0  0  0  0  0  0  0  0  0  0  0
   20.2010    5.1030   31.3830 O   0  0  0  0  0  0  0  0  0  0  0  0
   22.1080    4.3920   30.0800 C   0  0  0  0  0  0  0  0  0  0  0  0
   23.4870    4.1550   30.6240 C   0  0  0  0  0  0  0  0  0  0  0  0
   24.5640    5.0340   30.2890 C   0  0  0  0  0  0  0  0  0  0  0  0
   24.1780    6.0800   29.4600 O   0  0  0  0  0  0  0  0  0  0  0  0
   25.1170    7.1760   29.2740 C   0  0  0  0  0  0  0  0  0  0  0  0
   25.8560    4.8100   30.7390 C   0  0  0  0  0  0  0  0  0  0  0  0
   26.1180    3.7000   31.5700 C   0  0  0  0  0  0  0  0  0  0  0  0
   27.4820    3.4680   32.0510 N   0  3  0  0  0  0  0  0  0  0  0  0
   27.6480    2.6560   32.9480 O   0  5  0  0  0  0  0  0  0  0  0  0
   28.4000    4.0910   31.5310 O   0  0  0  0  0  0  0  0  0  0  0  0
   25.0640    2.8200   31.9110 C   0  0  0  0  0  0  0  0  0  0  0  0
   23.7570    3.0550   31.4230 C   0  0  0  0  0  0  0  0  0  0  0  0
   25.4410    1.7860   32.7150 O   0  0  0  0  0  0  0  0  0  0  0  0
   24.4640    0.7340   32.9700 C   0  0  0  0  0  0  0  0  0  0  0  0
   25.2400   10.8550   29.9560 H   0  0  0  0  0  0  0  0  0  0  0  0
   24.7470   11.6160   31.5230 H   0  0  0  0  0  0  0  0  0  0  0  0
   24.4020    9.8640   31.2080 H   0  0  0  0  0  0  0  0  0  0  0  0
   23.1080   12.3150   29.7680 H   0  0  0  0  0  0  0  0  0  0  0  0
   22.8280   10.5470   29.3090 H   0  0  0  0  0  0  0  0  0  0  0  0
   19.5710    6.9580   32.5340 H   0  0  0  0  0  0  0  0  0  0  0  0
   17.9810    8.2960   33.7570 H   0  0  0  0  0  0  0  0  0  0  0  0
   18.0730   10.0540   33.7980 H   0  0  0  0  0  0  0  0  0  0  0  0
   22.7370    6.8340   30.4180 H   0  0  0  0  0  0  0  0  0  0  0  0
   21.5540    3.4160   30.0340 H   0  0  0  0  0  0  0  0  0  0  0  0
   22.1990    4.7960   29.0310 H   0  0  0  0  0  0  0  0  0  0  0  0
   25.4890    7.5490   30.2520 H   0  0  0  0  0  0  0  0  0  0  0  0
   25.9380    6.8350   28.6080 H   0  0  0  0  0  0  0  0  0  0  0  0
   24.4700    7.9350   28.7750 H   0  0  0  0  0  0  0  0  0  0  0  0
   26.6830    5.4690   30.4490 H   0  0  0  0  0  0  0  0  0  0  0  0
   22.9560    2.3550   31.6720 H   0  0  0  0  0  0  0  0  0  0  0  0
   25.0730    0.0050   33.5570 H   0  0  0  0  0  0  0  0  0  0  0  0
   23.6230    1.1310   33.5770 H   0  0  0  0  0  0  0  0  0  0  0  0
   24.1240    0.2870   32.0100 H   0  0  0  0  0  0  0  0  0  0  0  0
  1  2  1  0  0  0  0
  1 30  1  0  0  0  0
  1 31  1  0  0  0  0
  1 32  1  0  0  0  0
  2  3  1  0  0  0  0
  2 33  1  0  0  0  0
  2 34  1  0  0  0  0
  3  4  1  0  0  0  0
  4 10  2  0  0  0  0
  4  5  1  0  0  0  0
  5  6  2  0  0  0  0
  6  7  1  0  0  0  0
  6 13  1  0  0  0  0
  7  8  2  0  0  0  0
  7 35  1  0  0  0  0
  8  9  1  0  0  0  0
  8 10  1  0  0  0  0
  9 36  1  0  0  0  0
  9 37  1  0  0  0  0
 10 11  1  0  0  0  0
 11 12  3  0  0  0  0
 13 14  1  0  0  0  0
 13 38  1  0  0  0  0
 14 15  2  0  0  0  0
 14 16  1  0  0  0  0
 16 17  1  0  0  0  0
 16 39  1  0  0  0  0
 16 40  1  0  0  0  0
 17 27  2  0  0  0  0
 17 18  1  0  0  0  0
 18 19  1  0  0  0  0
 18 21  2  0  0  0  0
 19 20  1  0  0  0  0
 20 41  1  0  0  0  0
 20 42  1  0  0  0  0
 20 43  1  0  0  0  0
 21 22  1  0  0  0  0
 21 44  1  0  0  0  0
 22 23  1  0  0  0  0
 22 26  2  0  0  0  0
 23 24  1  0  0  0  0
 23 25  2  0  0  0  0
 26 27  1  0  0  0  0
 26 28  1  0  0  0  0
 27 45  1  0  0  0  0
 28 29  1  0  0  0  0
 29 46  1  0  0  0  0
 29 47  1  0  0  0  0
 29 48  1  0  0  0  0
M  CHG  2  23   1  24  -1
M  END
$$$$
