CAT-13i
 OpenBabel02232411143D
Structure written by MMmdl.
 46 49  0  0  1  0  0  0  0  0999 V2000
   11.7720   -1.8510    1.2030 C   0  0  0  0  0  0  0  0  0  0  0  0
   13.0580   -2.2640    0.6110 N   0  0  0  0  0  0  0  0  0  0  0  0
   14.2380   -2.3820    1.3570 C   0  0  0  0  0  0  0  0  0  0  0  0
   14.3430   -2.3830    2.7130 N   0  0  0  0  0  0  0  0  0  0  0  0
   15.3170   -2.5950    0.5040 N   0  3  0  0  0  0  0  0  0  0  0  0
   14.8340   -2.8950   -0.8940 C   0  0  2  0  0  0  0  0  0  0  0  0
   15.0860   -4.3600   -1.2640 C   0  0  0  0  0  0  0  0  0  0  0  0
   14.6710   -5.4730   -0.3150 C   0  0  0  0  0  0  0  0  0  0  0  0
   13.7100   -5.4340    0.8670 C   0  0  0  0  0  0  0  0  0  0  0  0
   13.3070   -6.1510   -0.3970 C   0  0  0  0  0  0  0  0  0  0  0  0
   15.4090   -1.8450   -1.8410 C   0  0  0  0  0  0  0  0  0  0  0  0
   16.0960   -2.1810   -3.0120 C   0  0  0  0  0  0  0  0  0  0  0  0
   16.5570   -1.1640   -3.8580 C   0  0  0  0  0  0  0  0  0  0  0  0
   16.3390    0.1790   -3.5530 C   0  0  0  0  0  0  0  0  0  0  0  0
   15.6590    0.5320   -2.3740 C   0  0  0  0  0  0  0  0  0  0  0  0
   15.4030    1.9480   -2.0230 C   0  0  0  0  0  0  0  0  0  0  0  0
   14.9810    2.8720   -2.9930 C   0  0  0  0  0  0  0  0  0  0  0  0
   14.6600    4.1840   -2.6270 C   0  0  0  0  0  0  0  0  0  0  0  0
   14.7390    4.5920   -1.2910 C   0  0  0  0  0  0  0  0  0  0  0  0
   15.1760    3.6680   -0.3400 C   0  0  0  0  0  0  0  0  0  0  0  0
   15.2160    4.1110    1.3270 Cl  0  0  0  0  0  0  0  0  0  0  0  0
   15.5360    2.3660   -0.6880 C   0  0  0  0  0  0  0  0  0  0  0  0
   15.1970   -0.4900   -1.5320 C   0  0  0  0  0  0  0  0  0  0  0  0
   13.2990   -2.6200   -0.7940 C   0  0  0  0  0  0  0  0  0  0  0  0
   12.4320   -2.6310   -1.6100 O   0  0  0  0  0  0  0  0  0  0  0  0
   11.6330   -2.3300    2.2090 H   0  0  0  0  0  0  0  0  0  0  0  0
   11.7790   -0.7350    1.3140 H   0  0  0  0  0  0  0  0  0  0  0  0
   10.9300   -2.1660    0.5320 H   0  0  0  0  0  0  0  0  0  0  0  0
   13.6210   -1.9390    3.3290 H   0  0  0  0  0  0  0  0  0  0  0  0
   16.2110   -2.9980    0.8820 H   0  0  0  0  0  0  0  0  0  0  0  0
   16.1970   -4.4670   -1.4170 H   0  0  0  0  0  0  0  0  0  0  0  0
   14.5800   -4.5580   -2.2490 H   0  0  0  0  0  0  0  0  0  0  0  0
   15.5310   -6.1510   -0.1760 H   0  0  0  0  0  0  0  0  0  0  0  0
   13.9850   -6.0290    1.7510 H   0  0  0  0  0  0  0  0  0  0  0  0
   13.1570   -4.5470    1.1630 H   0  0  0  0  0  0  0  0  0  0  0  0
   12.5340   -5.7040   -1.0330 H   0  0  0  0  0  0  0  0  0  0  0  0
   13.2670   -7.2490   -0.3930 H   0  0  0  0  0  0  0  0  0  0  0  0
   16.2770   -3.2210   -3.2830 H   0  0  0  0  0  0  0  0  0  0  0  0
   17.0990   -1.4250   -4.7720 H   0  0  0  0  0  0  0  0  0  0  0  0
   16.7010    0.9530   -4.2370 H   0  0  0  0  0  0  0  0  0  0  0  0
   14.8820    2.5660   -4.0390 H   0  0  0  0  0  0  0  0  0  0  0  0
   14.3230    4.8920   -3.3940 H   0  0  0  0  0  0  0  0  0  0  0  0
   14.4410    5.6030   -1.0010 H   0  0  0  0  0  0  0  0  0  0  0  0
   15.8990    1.6670    0.0660 H   0  0  0  0  0  0  0  0  0  0  0  0
   14.6620   -0.2320   -0.6190 H   0  0  0  0  0  0  0  0  0  0  0  0
   15.3040   -2.3950    3.1490 H   0  0  0  0  0  0  0  0  0  0  0  0
  1  2  1  0  0  0  0
  1 26  1  0  0  0  0
  1 27  1  0  0  0  0
  1 28  1  0  0  0  0
  2  3  1  0  0  0  0
  2 24  1  0  0  0  0
  3  4  1  0  0  0  0
  3  5  2  0  0  0  0
  4 29  1  0  0  0  0
  4 46  1  0  0  0  0
  5  6  1  0  0  0  0
  5 30  1  0  0  0  0
  6  7  1  6  0  0  0
  6 11  1  0  0  0  0
  6 24  1  0  0  0  0
  7  8  1  0  0  0  0
  7 31  1  0  0  0  0
  7 32  1  0  0  0  0
  8  9  1  0  0  0  0
  8 10  1  0  0  0  0
  8 33  1  0  0  0  0
  9 10  1  0  0  0  0
  9 34  1  0  0  0  0
  9 35  1  0  0  0  0
 10 36  1  0  0  0  0
 10 37  1  0  0  0  0
 11 12  2  0  0  0  0
 11 23  1  0  0  0  0
 12 13  1  0  0  0  0
 12 38  1  0  0  0  0
 13 14  2  0  0  0  0
 13 39  1  0  0  0  0
 14 15  1  0  0  0  0
 14 40  1  0  0  0  0
 15 16  1  0  0  0  0
 15 23  2  0  0  0  0
 16 17  2  0  0  0  0
 16 22  1  0  0  0  0
 17 18  1  0  0  0  0
 17 41  1  0  0  0  0
 18 19  2  0  0  0  0
 18 42  1  0  0  0  0
 19 20  1  0  0  0  0
 19 43  1  0  0  0  0
 20 21  1  0  0  0  0
 20 22  2  0  0  0  0
 22 44  1  0  0  0  0
 23 45  1  0  0  0  0
 24 25  2  0  0  0  0
M  CHG  1   5   1
M  END
$$$$
