p38a_2n
 OpenBabel02232411163D
Structure written by MMmdl.
 53 56  0  0  0  0  0  0  0  0999 V2000
   38.3540   36.6080   17.0710 C   0  0  0  0  0  0  0  0  0  0  0  0
   34.4530   34.9580   21.0090 C   0  0  0  0  0  0  0  0  0  0  0  0
   37.5870   36.1160   18.1240 C   0  0  0  0  0  0  0  0  0  0  0  0
   33.8100   38.9180   23.7210 C   0  0  0  0  0  0  0  0  0  0  0  0
   34.6580   37.8170   21.3380 C   0  0  0  0  0  0  0  0  0  0  0  0
   35.1560   37.2070   20.1360 C   0  0  0  0  0  0  0  0  0  0  0  0
   37.6970   36.7690   15.8440 C   0  0  0  0  0  0  0  0  0  0  0  0
   36.3540   36.4430   15.6390 C   0  0  0  0  0  0  0  0  0  0  0  0
   35.6100   35.9300   16.7060 C   0  0  0  0  0  0  0  0  0  0  0  0
   34.0820   37.0090   22.3630 C   0  0  0  0  0  0  0  0  0  0  0  0
   34.7210   39.2160   21.5810 C   0  0  0  0  0  0  0  0  0  0  0  0
   35.0810   35.8630   20.0100 C   0  0  0  0  0  0  0  0  0  0  0  0
   36.2350   35.7530   17.9440 C   0  0  0  0  0  0  0  0  0  0  0  0
   38.1230   35.9860   19.3300 F   0  0  0  0  0  0  0  0  0  0  0  0
   35.5450   35.0770   18.9570 O   0  0  0  0  0  0  0  0  0  0  0  0
   34.3230   39.7810   22.7300 N   0  0  0  0  0  0  0  0  0  0  0  0
   34.3550   33.7550   20.8970 O   0  0  0  0  0  0  0  0  0  0  0  0
   33.9290   35.6220   22.1720 N   0  0  0  0  0  0  0  0  0  0  0  0
   33.6660   37.5520   23.5500 N   0  0  0  0  0  0  0  0  0  0  0  0
   33.4220   39.4710   24.9150 N   0  0  0  0  0  0  0  0  0  0  0  0
   39.4000   36.8930   17.2090 H   0  0  0  0  0  0  0  0  0  0  0  0
   35.5870   37.8550   19.3700 H   0  0  0  0  0  0  0  0  0  0  0  0
   35.8740   36.5970   14.6700 H   0  0  0  0  0  0  0  0  0  0  0  0
   34.5520   35.6870   16.5680 H   0  0  0  0  0  0  0  0  0  0  0  0
   35.1100   39.8900   20.7990 H   0  0  0  0  0  0  0  0  0  0  0  0
   33.5400   40.4880   25.0780 H   0  0  0  0  0  0  0  0  0  0  0  0
   38.3770   37.2980   14.8300 F   0  0  0  0  0  0  0  0  0  0  0  0
   32.9800   40.2960   27.9910 C   0  0  0  0  0  0  0  0  0  0  0  0
   32.0710   39.5710   26.9900 C   0  0  0  0  0  0  0  0  0  0  0  0
   32.8390   38.6460   26.0240 C   0  0  0  0  0  0  0  0  0  0  0  0
   33.9180   37.8310   26.7670 C   0  0  0  0  0  0  0  0  0  0  0  0
   34.7540   38.6970   27.7090 C   0  0  0  0  0  0  0  0  0  0  0  0
   33.9080   39.4070   28.6450 O   0  0  0  0  0  0  0  0  0  0  0  0
   32.3910   40.7000   28.8460 H   0  0  0  0  0  0  0  0  0  0  0  0
   33.5600   41.1000   27.4850 H   0  0  0  0  0  0  0  0  0  0  0  0
   31.5050   40.3350   26.4030 H   0  0  0  0  0  0  0  0  0  0  0  0
   31.3290   38.9420   27.5420 H   0  0  0  0  0  0  0  0  0  0  0  0
   32.1030   37.9250   25.5590 H   0  0  0  0  0  0  0  0  0  0  0  0
   33.3910   37.0320   27.3490 H   0  0  0  0  0  0  0  0  0  0  0  0
   34.5870   37.3180   26.0330 H   0  0  0  0  0  0  0  0  0  0  0  0
   35.3810   38.0760   28.3890 H   0  0  0  0  0  0  0  0  0  0  0  0
   35.3640   39.4370   27.1420 H   0  0  0  0  0  0  0  0  0  0  0  0
   33.2260   34.7950   23.2080 C   0  0  0  0  0  0  0  0  0  0  0  0
   32.5260   35.4580   23.7930 H   0  0  0  0  0  0  0  0  0  0  0  0
   32.6120   34.0210   22.6710 H   0  0  0  0  0  0  0  0  0  0  0  0
   34.2130   34.1150   24.1700 C   0  0  0  0  0  0  0  0  0  0  0  0
   34.7980   33.3280   23.6390 H   0  0  0  0  0  0  0  0  0  0  0  0
   34.9250   34.8700   24.5820 H   0  0  0  0  0  0  0  0  0  0  0  0
   33.4400   33.4720   25.3360 C   0  0  0  0  0  0  0  0  0  0  0  0
   33.2110   34.2200   26.1330 H   0  0  0  0  0  0  0  0  0  0  0  0
   32.5100   32.9690   24.9840 H   0  0  0  0  0  0  0  0  0  0  0  0
   34.2600   32.5070   26.0150 O   0  0  0  0  0  0  0  0  0  0  0  0
   34.3790   31.7080   25.4140 H   0  0  0  0  0  0  0  0  0  0  0  0
  1  3  2  0  0  0  0
  1  7  1  0  0  0  0
  1 21  1  0  0  0  0
  2 12  1  0  0  0  0
  2 17  2  0  0  0  0
  2 18  1  0  0  0  0
  3 13  1  0  0  0  0
  3 14  1  0  0  0  0
  4 16  2  0  0  0  0
  4 19  1  0  0  0  0
  4 20  1  0  0  0  0
  5  6  1  0  0  0  0
  5 10  1  0  0  0  0
  5 11  2  0  0  0  0
  6 12  2  0  0  0  0
  6 22  1  0  0  0  0
  7  8  2  0  0  0  0
  7 27  1  0  0  0  0
  8  9  1  0  0  0  0
  8 23  1  0  0  0  0
  9 13  2  0  0  0  0
  9 24  1  0  0  0  0
 10 18  1  0  0  0  0
 10 19  2  0  0  0  0
 11 16  1  0  0  0  0
 11 25  1  0  0  0  0
 12 15  1  0  0  0  0
 13 15  1  0  0  0  0
 18 43  1  0  0  0  0
 20 26  1  0  0  0  0
 20 30  1  0  0  0  0
 28 29  1  0  0  0  0
 28 33  1  0  0  0  0
 28 34  1  0  0  0  0
 28 35  1  0  0  0  0
 29 30  1  0  0  0  0
 29 36  1  0  0  0  0
 29 37  1  0  0  0  0
 30 31  1  0  0  0  0
 30 38  1  0  0  0  0
 31 32  1  0  0  0  0
 31 39  1  0  0  0  0
 31 40  1  0  0  0  0
 32 33  1  0  0  0  0
 32 41  1  0  0  0  0
 32 42  1  0  0  0  0
 43 44  1  0  0  0  0
 43 45  1  0  0  0  0
 43 46  1  0  0  0  0
 46 47  1  0  0  0  0
 46 48  1  0  0  0  0
 46 49  1  0  0  0  0
 49 50  1  0  0  0  0
 49 51  1  0  0  0  0
 49 52  1  0  0  0  0
 52 53  1  0  0  0  0
M  END
$$$$
