48
 OpenBabel02232411163D
Structure written by MMmdl.
 42 45  0  0  0  0  0  0  0  0999 V2000
    3.7320  -50.0560    6.0570 O   0  0  0  0  0  0  0  0  0  0  0  0
    2.9910  -49.1790    6.5460 C   0  0  0  0  0  0  0  0  0  0  0  0
    3.3520  -48.1420    7.1180 O   0  5  0  0  0  0  0  0  0  0  0  0
    1.4830  -49.4690    6.4220 C   0  0  0  0  0  0  0  0  0  0  0  0
   -0.3810  -50.7960    6.5320 C   0  0  0  0  0  0  0  0  0  0  0  0
   -1.3110  -51.8300    6.7400 C   0  0  0  0  0  0  0  0  0  0  0  0
   -2.6330  -51.5760    6.4080 C   0  0  0  0  0  0  0  0  0  0  0  0
   -3.0290  -50.3270    5.8730 C   0  0  0  0  0  0  0  0  0  0  0  0
   -2.1160  -49.3020    5.6680 C   0  0  0  0  0  0  0  0  0  0  0  0
   -0.7690  -49.5110    6.0060 C   0  0  0  0  0  0  0  0  0  0  0  0
    0.4240  -48.6910    5.9680 C   0  0  0  0  0  0  0  0  0  0  0  0
    0.4300  -47.2700    5.5290 C   0  0  0  0  0  0  0  0  0  0  0  0
    0.2500  -46.2820    6.6970 C   0  0  0  0  0  0  0  0  0  0  0  0
   -1.1070  -46.3850    7.3950 C   0  0  0  0  0  0  0  0  0  0  0  0
   -2.0390  -45.7870    6.4240 O   0  0  0  0  0  0  0  0  0  0  0  0
   -3.2950  -45.4360    6.8030 C   0  0  0  0  0  0  0  0  0  0  0  0
   -5.9440  -44.4540    7.2670 C   0  0  0  0  0  0  0  0  0  0  0  0
   -5.2210  -44.0790    6.1440 C   0  0  0  0  0  0  0  0  0  0  0  0
   -3.9210  -44.5580    5.9030 C   0  0  0  0  0  0  0  0  0  0  0  0
   -1.0130  -52.7950    7.1500 H   0  0  0  0  0  0  0  0  0  0  0  0
   -3.3900  -52.3460    6.5620 H   0  0  0  0  0  0  0  0  0  0  0  0
   -4.0800  -50.1770    5.6240 H   0  0  0  0  0  0  0  0  0  0  0  0
   -2.4490  -48.3500    5.2530 H   0  0  0  0  0  0  0  0  0  0  0  0
   -0.4140  -47.1100    4.8100 H   0  0  0  0  0  0  0  0  0  0  0  0
    1.3870  -47.0230    5.0100 H   0  0  0  0  0  0  0  0  0  0  0  0
    0.3540  -45.2420    6.3060 H   0  0  0  0  0  0  0  0  0  0  0  0
    1.0390  -46.4680    7.4640 H   0  0  0  0  0  0  0  0  0  0  0  0
   -1.1450  -45.7690    8.3170 H   0  0  0  0  0  0  0  0  0  0  0  0
   -1.4350  -47.4330    7.5510 H   0  0  0  0  0  0  0  0  0  0  0  0
   -3.3970  -44.2390    5.0080 H   0  0  0  0  0  0  0  0  0  0  0  0
   -5.6690  -43.3910    5.4230 H   0  0  0  0  0  0  0  0  0  0  0  0
   -6.9460  -44.0830    7.4530 H   0  0  0  0  0  0  0  0  0  0  0  0
    1.0010  -50.7460    6.7760 N   0  0  0  0  0  0  0  0  0  0  0  0
    1.5330  -51.5320    7.1310 H   0  0  0  0  0  0  0  0  0  0  0  0
   -4.8960  -46.8820    9.7990 C   0  0  0  0  0  0  0  0  0  0  0  0
   -5.8450  -45.9460    9.3110 N   0  0  0  0  0  0  0  0  0  0  0  0
   -5.3270  -45.3630    8.1470 C   0  0  0  0  0  0  0  0  0  0  0  0
   -3.9990  -45.8840    7.9480 C   0  0  0  0  0  0  0  0  0  0  0  0
   -3.7680  -46.8360    9.0060 C   0  0  0  0  0  0  0  0  0  0  0  0
   -6.7860  -45.8490    9.6520 H   0  0  0  0  0  0  0  0  0  0  0  0
   -2.8890  -47.4340    9.1480 H   0  0  0  0  0  0  0  0  0  0  0  0
   -5.1210  -47.5020   10.6500 H   0  0  0  0  0  0  0  0  0  0  0  0
  1  2  2  0  0  0  0
  2  3  1  0  0  0  0
  2  4  1  0  0  0  0
  4 11  2  0  0  0  0
  4 33  1  0  0  0  0
  5  6  2  0  0  0  0
  5 10  1  0  0  0  0
  5 33  1  0  0  0  0
  6  7  1  0  0  0  0
  6 20  1  0  0  0  0
  7  8  2  0  0  0  0
  7 21  1  0  0  0  0
  8  9  1  0  0  0  0
  8 22  1  0  0  0  0
  9 10  2  0  0  0  0
  9 23  1  0  0  0  0
 10 11  1  0  0  0  0
 11 12  1  0  0  0  0
 12 24  1  0  0  0  0
 12 25  1  0  0  0  0
 12 13  1  0  0  0  0
 13 14  1  0  0  0  0
 13 26  1  0  0  0  0
 13 27  1  0  0  0  0
 14 15  1  0  0  0  0
 14 28  1  0  0  0  0
 14 29  1  0  0  0  0
 15 16  1  0  0  0  0
 16 19  2  0  0  0  0
 16 38  1  0  0  0  0
 17 18  2  0  0  0  0
 17 32  1  0  0  0  0
 17 37  1  0  0  0  0
 18 19  1  0  0  0  0
 18 31  1  0  0  0  0
 19 30  1  0  0  0  0
 33 34  1  0  0  0  0
 35 36  1  0  0  0  0
 35 39  2  0  0  0  0
 35 42  1  0  0  0  0
 36 37  1  0  0  0  0
 36 40  1  0  0  0  0
 37 38  2  0  0  0  0
 38 39  1  0  0  0  0
 39 41  1  0  0  0  0
M  CHG  1   3  -1
M  END
$$$$
