p38a_2g
 OpenBabel02232411163D
Structure written by MMmdl.
 46 49  0  0  0  0  0  0  0  0999 V2000
   32.1540   39.5590   26.9840 C   0  0  0  0  0  0  0  0  0  0  0  0
   33.0490   40.3060   27.9810 C   0  0  0  0  0  0  0  0  0  0  0  0
   34.8590   38.7490   27.6980 C   0  0  0  0  0  0  0  0  0  0  0  0
   34.0430   37.8650   26.7550 C   0  0  0  0  0  0  0  0  0  0  0  0
   38.4460   36.5040   17.2420 C   0  0  0  0  0  0  0  0  0  0  0  0
   33.9980   39.4380   28.6340 O   0  0  0  0  0  0  0  0  0  0  0  0
   34.4740   35.0130   20.9270 C   0  0  0  0  0  0  0  0  0  0  0  0
   37.5280   36.0680   18.1930 C   0  0  0  0  0  0  0  0  0  0  0  0
   33.8560   38.9420   23.6910 C   0  0  0  0  0  0  0  0  0  0  0  0
   32.9390   38.6500   26.0170 C   0  0  0  0  0  0  0  0  0  0  0  0
   34.6020   37.8790   21.2550 C   0  0  0  0  0  0  0  0  0  0  0  0
   35.0140   37.2900   20.0110 C   0  0  0  0  0  0  0  0  0  0  0  0
   37.9950   36.7080   15.9300 C   0  0  0  0  0  0  0  0  0  0  0  0
   36.6620   36.4690   15.5880 C   0  0  0  0  0  0  0  0  0  0  0  0
   35.7420   36.0160   16.5420 C   0  0  0  0  0  0  0  0  0  0  0  0
   34.1400   37.0470   22.3190 C   0  0  0  0  0  0  0  0  0  0  0  0
   34.6380   39.2770   21.5040 C   0  0  0  0  0  0  0  0  0  0  0  0
   34.9650   35.9440   19.8780 C   0  0  0  0  0  0  0  0  0  0  0  0
   36.1860   35.8080   17.8480 C   0  0  0  0  0  0  0  0  0  0  0  0
   33.5720   34.8190   23.2790 C   0  0  0  0  0  0  0  0  0  0  0  0
   37.9070   35.8890   19.4550 F   0  0  0  0  0  0  0  0  0  0  0  0
   35.3050   35.1980   18.7510 O   0  0  0  0  0  0  0  0  0  0  0  0
   34.2910   39.8230   22.6790 N   0  0  0  0  0  0  0  0  0  0  0  0
   34.4000   33.8080   20.8200 O   0  0  0  0  0  0  0  0  0  0  0  0
   34.0660   35.6550   22.1490 N   0  0  0  0  0  0  0  0  0  0  0  0
   33.7660   37.5710   23.5300 N   0  0  0  0  0  0  0  0  0  0  0  0
   33.4920   39.4840   24.8990 N   0  0  0  0  0  0  0  0  0  0  0  0
   31.4290   38.9140   27.5410 H   0  0  0  0  0  0  0  0  0  0  0  0
   31.5660   40.3090   26.4000 H   0  0  0  0  0  0  0  0  0  0  0  0
   33.6110   41.1220   27.4730 H   0  0  0  0  0  0  0  0  0  0  0  0
   32.4540   40.6990   28.8370 H   0  0  0  0  0  0  0  0  0  0  0  0
   35.5000   38.1410   28.3760 H   0  0  0  0  0  0  0  0  0  0  0  0
   35.4520   39.5030   27.1320 H   0  0  0  0  0  0  0  0  0  0  0  0
   34.7270   37.3710   26.0210 H   0  0  0  0  0  0  0  0  0  0  0  0
   33.5420   37.0500   27.3380 H   0  0  0  0  0  0  0  0  0  0  0  0
   39.4840   36.7140   17.5070 H   0  0  0  0  0  0  0  0  0  0  0  0
   32.2180   37.9080   25.5630 H   0  0  0  0  0  0  0  0  0  0  0  0
   35.3610   37.9530   19.2150 H   0  0  0  0  0  0  0  0  0  0  0  0
   36.3190   36.6550   14.5690 H   0  0  0  0  0  0  0  0  0  0  0  0
   34.6990   35.8470   16.2620 H   0  0  0  0  0  0  0  0  0  0  0  0
   34.9610   39.9680   20.7070 H   0  0  0  0  0  0  0  0  0  0  0  0
   34.2180   34.9740   24.1850 H   0  0  0  0  0  0  0  0  0  0  0  0
   32.5200   35.1150   23.5410 H   0  0  0  0  0  0  0  0  0  0  0  0
   33.5880   33.7350   22.9970 H   0  0  0  0  0  0  0  0  0  0  0  0
   33.5830   40.5040   25.0580 H   0  0  0  0  0  0  0  0  0  0  0  0
   38.6860   37.0800   15.1740 H   0  0  0  0  0  0  0  0  0  0  0  0
  1  2  1  0  0  0  0
  1 10  1  0  0  0  0
  1 28  1  0  0  0  0
  1 29  1  0  0  0  0
  2  6  1  0  0  0  0
  2 30  1  0  0  0  0
  2 31  1  0  0  0  0
  3  4  1  0  0  0  0
  3  6  1  0  0  0  0
  3 32  1  0  0  0  0
  3 33  1  0  0  0  0
  4 10  1  0  0  0  0
  4 34  1  0  0  0  0
  4 35  1  0  0  0  0
  5  8  2  0  0  0  0
  5 13  1  0  0  0  0
  5 36  1  0  0  0  0
  7 18  1  0  0  0  0
  7 24  2  0  0  0  0
  7 25  1  0  0  0  0
  8 19  1  0  0  0  0
  8 21  1  0  0  0  0
  9 23  2  0  0  0  0
  9 26  1  0  0  0  0
  9 27  1  0  0  0  0
 10 27  1  0  0  0  0
 10 37  1  0  0  0  0
 11 12  1  0  0  0  0
 11 16  1  0  0  0  0
 11 17  2  0  0  0  0
 12 18  2  0  0  0  0
 12 38  1  0  0  0  0
 13 14  2  0  0  0  0
 13 46  1  0  0  0  0
 14 15  1  0  0  0  0
 14 39  1  0  0  0  0
 15 19  2  0  0  0  0
 15 40  1  0  0  0  0
 16 25  1  0  0  0  0
 16 26  2  0  0  0  0
 17 23  1  0  0  0  0
 17 41  1  0  0  0  0
 18 22  1  0  0  0  0
 19 22  1  0  0  0  0
 20 25  1  0  0  0  0
 20 42  1  0  0  0  0
 20 43  1  0  0  0  0
 20 44  1  0  0  0  0
 27 45  1  0  0  0  0
M  END
$$$$
