18652-1
 OpenBabel02232411163D
Structure written by MMmdl.
 55 56  0  0  0  0  0  0  0  0999 V2000
   24.6440   10.2870   30.7920 C   0  0  0  0  0  0  0  0  0  0  0  0
   23.4500   10.9710   30.1560 C   0  0  0  0  0  0  0  0  0  0  0  0
   23.0490   10.3900   28.8120 C   0  0  0  0  0  0  0  0  0  0  0  0
   22.2940   11.0100   31.0960 O   0  0  0  0  0  0  0  0  0  0  0  0
   21.6660    9.8940   31.5140 C   0  0  0  0  0  0  0  0  0  0  0  0
   22.1060    8.6730   31.1240 N   0  0  0  0  0  0  0  0  0  0  0  0
   21.3710    7.5690   31.5130 C   0  0  0  0  0  0  0  0  0  0  0  0
   20.2250    7.6620   32.2960 C   0  0  0  0  0  0  0  0  0  0  0  0
   19.7720    8.9420   32.7160 C   0  0  0  0  0  0  0  0  0  0  0  0
   18.6190    9.0370   33.4550 N   0  0  0  0  0  0  0  0  0  0  0  0
   20.5170   10.1050   32.3390 C   0  0  0  0  0  0  0  0  0  0  0  0
   20.1620   11.4210   32.7030 C   0  0  0  0  0  0  0  0  0  0  0  0
   19.9170   12.5230   32.9710 N   0  0  0  0  0  0  0  0  0  0  0  0
   21.9130    6.3630   30.9980 N   0  0  0  0  0  0  0  0  0  0  0  0
   21.2200    5.1380   30.9180 C   0  0  0  0  0  0  0  0  0  0  0  0
   20.1400    4.9620   31.4410 O   0  0  0  0  0  0  0  0  0  0  0  0
   21.8930    4.0950   30.0430 C   0  0  0  0  0  0  0  0  0  0  0  0
   23.2550    3.6450   30.4810 C   0  0  0  0  0  0  0  0  0  0  0  0
   24.4180    4.3140   29.9930 C   0  0  0  0  0  0  0  0  0  0  0  0
   24.1140    5.4490   29.2450 O   0  0  0  0  0  0  0  0  0  0  0  0
   25.1840    6.4150   29.0610 C   0  0  0  0  0  0  0  0  0  0  0  0
   25.6900    3.8020   30.2080 C   0  0  0  0  0  0  0  0  0  0  0  0
   25.8680    2.6390   30.9850 C   0  0  0  0  0  0  0  0  0  0  0  0
   27.4900    1.9950   31.1160 S   0  0  0  0  0  0  0  0  0  0  0  0
   27.4580    0.8340   32.0390 O   0  0  0  0  0  0  0  0  0  0  0  0
   28.4180    3.0370   31.6190 O   0  0  0  0  0  0  0  0  0  0  0  0
   27.9050    1.4970   29.5060 C   0  0  0  0  0  0  0  0  0  0  0  0
   24.7370    2.0440   31.5620 C   0  0  0  0  0  0  0  0  0  0  0  0
   23.4290    2.5280   31.2790 C   0  0  0  0  0  0  0  0  0  0  0  0
   24.9930    0.9980   32.4060 O   0  0  0  0  0  0  0  0  0  0  0  0
   23.8620    0.2370   32.9210 C   0  0  0  0  0  0  0  0  0  0  0  0
   24.8450   10.6980   31.8010 H   0  0  0  0  0  0  0  0  0  0  0  0
   24.4860    9.1840   30.8740 H   0  0  0  0  0  0  0  0  0  0  0  0
   25.5460   10.4470   30.1510 H   0  0  0  0  0  0  0  0  0  0  0  0
   23.6000   12.0820   30.0900 H   0  0  0  0  0  0  0  0  0  0  0  0
   22.1710   10.9240   28.3910 H   0  0  0  0  0  0  0  0  0  0  0  0
   23.9000   10.5120   28.0980 H   0  0  0  0  0  0  0  0  0  0  0  0
   22.8130    9.3030   28.8870 H   0  0  0  0  0  0  0  0  0  0  0  0
   19.6560    6.7730   32.5750 H   0  0  0  0  0  0  0  0  0  0  0  0
   18.0960    8.1870   33.7380 H   0  0  0  0  0  0  0  0  0  0  0  0
   18.2410    9.9400   33.7400 H   0  0  0  0  0  0  0  0  0  0  0  0
   22.8240    6.4500   30.4900 H   0  0  0  0  0  0  0  0  0  0  0  0
   21.2220    3.1990   29.9830 H   0  0  0  0  0  0  0  0  0  0  0  0
   21.9790    4.5430   29.0110 H   0  0  0  0  0  0  0  0  0  0  0  0
   25.8920    6.0310   28.2950 H   0  0  0  0  0  0  0  0  0  0  0  0
   24.6260    7.3060   28.6930 H   0  0  0  0  0  0  0  0  0  0  0  0
   25.6920    6.6260   30.0270 H   0  0  0  0  0  0  0  0  0  0  0  0
   26.5560    4.2970   29.7540 H   0  0  0  0  0  0  0  0  0  0  0  0
   27.9410    2.3590   28.7870 H   0  0  0  0  0  0  0  0  0  0  0  0
   28.9090    1.0020   29.4520 H   0  0  0  0  0  0  0  0  0  0  0  0
   27.1620    0.7720   29.0820 H   0  0  0  0  0  0  0  0  0  0  0  0
   22.5560    2.0030   31.6670 H   0  0  0  0  0  0  0  0  0  0  0  0
   23.2290    0.8740   33.5750 H   0  0  0  0  0  0  0  0  0  0  0  0
   23.2890   -0.2120   32.0810 H   0  0  0  0  0  0  0  0  0  0  0  0
   24.3770   -0.5560   33.5160 H   0  0  0  0  0  0  0  0  0  0  0  0
  1  2  1  0  0  0  0
  1 32  1  0  0  0  0
  1 33  1  0  0  0  0
  1 34  1  0  0  0  0
  2  3  1  0  0  0  0
  2  4  1  0  0  0  0
  2 35  1  0  0  0  0
  3 36  1  0  0  0  0
  3 37  1  0  0  0  0
  3 38  1  0  0  0  0
  4  5  1  0  0  0  0
  5 11  2  0  0  0  0
  5  6  1  0  0  0  0
  6  7  2  0  0  0  0
  7  8  1  0  0  0  0
  7 14  1  0  0  0  0
  8  9  2  0  0  0  0
  8 39  1  0  0  0  0
  9 10  1  0  0  0  0
  9 11  1  0  0  0  0
 10 40  1  0  0  0  0
 10 41  1  0  0  0  0
 11 12  1  0  0  0  0
 12 13  3  0  0  0  0
 14 15  1  0  0  0  0
 14 42  1  0  0  0  0
 15 16  2  0  0  0  0
 15 17  1  0  0  0  0
 17 18  1  0  0  0  0
 17 43  1  0  0  0  0
 17 44  1  0  0  0  0
 18 29  2  0  0  0  0
 18 19  1  0  0  0  0
 19 20  1  0  0  0  0
 19 22  2  0  0  0  0
 20 21  1  0  0  0  0
 21 45  1  0  0  0  0
 21 46  1  0  0  0  0
 21 47  1  0  0  0  0
 22 23  1  0  0  0  0
 22 48  1  0  0  0  0
 23 24  1  0  0  0  0
 23 28  2  0  0  0  0
 24 25  2  0  0  0  0
 24 26  2  0  0  0  0
 24 27  1  0  0  0  0
 27 49  1  0  0  0  0
 27 50  1  0  0  0  0
 27 51  1  0  0  0  0
 28 29  1  0  0  0  0
 28 30  1  0  0  0  0
 29 52  1  0  0  0  0
 30 31  1  0  0  0  0
 31 53  1  0  0  0  0
 31 54  1  0  0  0  0
 31 55  1  0  0  0  0
M  END
$$$$
