p38a_2gg
 OpenBabel02232411163D
Structure written by MMmdl.
 48 51  0  0  0  0  0  0  0  0999 V2000
   38.3150   36.5820   17.1050 C   0  0  0  0  0  0  0  0  0  0  0  0
   34.4600   35.0010   21.0820 C   0  0  0  0  0  0  0  0  0  0  0  0
   37.5340   36.1120   18.1580 C   0  0  0  0  0  0  0  0  0  0  0  0
   33.8460   38.9450   23.8190 C   0  0  0  0  0  0  0  0  0  0  0  0
   34.6530   37.8640   21.4070 C   0  0  0  0  0  0  0  0  0  0  0  0
   35.1150   37.2590   20.1860 C   0  0  0  0  0  0  0  0  0  0  0  0
   37.6650   36.7500   15.8750 C   0  0  0  0  0  0  0  0  0  0  0  0
   36.3160   36.4520   15.6680 C   0  0  0  0  0  0  0  0  0  0  0  0
   35.5560   35.9670   16.7370 C   0  0  0  0  0  0  0  0  0  0  0  0
   34.1140   37.0480   22.4450 C   0  0  0  0  0  0  0  0  0  0  0  0
   34.7120   39.2600   21.6610 C   0  0  0  0  0  0  0  0  0  0  0  0
   35.0420   35.9140   20.0590 C   0  0  0  0  0  0  0  0  0  0  0  0
   36.1740   35.7860   17.9780 C   0  0  0  0  0  0  0  0  0  0  0  0
   33.4250   34.8460   23.3820 C   0  0  0  0  0  0  0  0  0  0  0  0
   38.0670   35.9680   19.3650 F   0  0  0  0  0  0  0  0  0  0  0  0
   35.4630   35.1280   18.9910 O   0  0  0  0  0  0  0  0  0  0  0  0
   34.3350   39.8130   22.8270 N   0  0  0  0  0  0  0  0  0  0  0  0
   34.3570   33.7990   20.9720 O   0  0  0  0  0  0  0  0  0  0  0  0
   34.0040   35.6590   22.2760 N   0  0  0  0  0  0  0  0  0  0  0  0
   33.6970   37.5860   23.6350 N   0  0  0  0  0  0  0  0  0  0  0  0
   33.5480   39.4720   25.0640 N   0  0  0  0  0  0  0  0  0  0  0  0
   39.3680   36.8420   17.2420 H   0  0  0  0  0  0  0  0  0  0  0  0
   35.5170   37.9110   19.4070 H   0  0  0  0  0  0  0  0  0  0  0  0
   35.8430   36.6080   14.6960 H   0  0  0  0  0  0  0  0  0  0  0  0
   34.4930   35.7470   16.5980 H   0  0  0  0  0  0  0  0  0  0  0  0
   35.0740   39.9460   20.8780 H   0  0  0  0  0  0  0  0  0  0  0  0
   34.0770   34.9200   24.2940 H   0  0  0  0  0  0  0  0  0  0  0  0
   32.4050   35.2360   23.6520 H   0  0  0  0  0  0  0  0  0  0  0  0
   33.3380   33.7730   23.0720 H   0  0  0  0  0  0  0  0  0  0  0  0
   33.5580   40.5030   25.1830 H   0  0  0  0  0  0  0  0  0  0  0  0
   38.3590   37.2580   14.8600 F   0  0  0  0  0  0  0  0  0  0  0  0
   32.9350   40.2830   28.0900 C   0  0  0  0  0  0  0  0  0  0  0  0
   32.0190   39.6690   27.0320 C   0  0  0  0  0  0  0  0  0  0  0  0
   32.7040   38.7020   26.0370 C   0  0  0  0  0  0  0  0  0  0  0  0
   33.5100   37.5900   26.7460 C   0  0  0  0  0  0  0  0  0  0  0  0
   34.5690   38.0970   27.7220 C   0  0  0  0  0  0  0  0  0  0  0  0
   32.3190   40.9120   28.7850 H   0  0  0  0  0  0  0  0  0  0  0  0
   33.6450   40.9920   27.5790 H   0  0  0  0  0  0  0  0  0  0  0  0
   31.5500   40.4980   26.4400 H   0  0  0  0  0  0  0  0  0  0  0  0
   31.1890   39.0980   27.5270 H   0  0  0  0  0  0  0  0  0  0  0  0
   31.8770   38.1890   25.4580 H   0  0  0  0  0  0  0  0  0  0  0  0
   32.7740   36.9240   27.2680 H   0  0  0  0  0  0  0  0  0  0  0  0
   34.0150   36.9600   25.9660 H   0  0  0  0  0  0  0  0  0  0  0  0
   35.1040   37.2080   28.1450 H   0  0  0  0  0  0  0  0  0  0  0  0
   35.3230   38.6970   27.1450 H   0  0  0  0  0  0  0  0  0  0  0  0
   33.8360   39.0680   28.9790 S   0  0  0  0  0  0  0  0  0  0  0  0
   32.9550   38.2560   29.8530 O   0  0  0  0  0  0  0  0  0  0  0  0
   34.8920   39.7180   29.8010 O   0  0  0  0  0  0  0  0  0  0  0  0
  1  3  2  0  0  0  0
  1  7  1  0  0  0  0
  1 22  1  0  0  0  0
  2 12  1  0  0  0  0
  2 18  2  0  0  0  0
  2 19  1  0  0  0  0
  3 13  1  0  0  0  0
  3 15  1  0  0  0  0
  4 17  2  0  0  0  0
  4 20  1  0  0  0  0
  4 21  1  0  0  0  0
  5  6  1  0  0  0  0
  5 10  1  0  0  0  0
  5 11  2  0  0  0  0
  6 12  2  0  0  0  0
  6 23  1  0  0  0  0
  7  8  2  0  0  0  0
  7 31  1  0  0  0  0
  8  9  1  0  0  0  0
  8 24  1  0  0  0  0
  9 13  2  0  0  0  0
  9 25  1  0  0  0  0
 10 19  1  0  0  0  0
 10 20  2  0  0  0  0
 11 17  1  0  0  0  0
 11 26  1  0  0  0  0
 12 16  1  0  0  0  0
 13 16  1  0  0  0  0
 14 19  1  0  0  0  0
 14 27  1  0  0  0  0
 14 28  1  0  0  0  0
 14 29  1  0  0  0  0
 21 30  1  0  0  0  0
 21 34  1  0  0  0  0
 32 33  1  0  0  0  0
 32 37  1  0  0  0  0
 32 38  1  0  0  0  0
 32 46  1  0  0  0  0
 33 34  1  0  0  0  0
 33 39  1  0  0  0  0
 33 40  1  0  0  0  0
 34 35  1  0  0  0  0
 34 41  1  0  0  0  0
 35 36  1  0  0  0  0
 35 42  1  0  0  0  0
 35 43  1  0  0  0  0
 36 44  1  0  0  0  0
 36 45  1  0  0  0  0
 36 46  1  0  0  0  0
 46 47  2  0  0  0  0
 46 48  2  0  0  0  0
M  END
$$$$
