18639-1
 OpenBabel02232411163D
Structure written by MMmdl.
 48 49  0  0  0  0  0  0  0  0999 V2000
   24.4740   10.8300   30.7940 C   0  0  0  0  0  0  0  0  0  0  0  0
   23.1600   11.2020   30.1410 C   0  0  0  0  0  0  0  0  0  0  0  0
   22.0720   11.2700   31.1400 O   0  0  0  0  0  0  0  0  0  0  0  0
   21.4830   10.1230   31.5490 C   0  0  0  0  0  0  0  0  0  0  0  0
   21.9530    8.9340   31.1040 N   0  0  0  0  0  0  0  0  0  0  0  0
   21.2560    7.7930   31.4690 C   0  0  0  0  0  0  0  0  0  0  0  0
   20.1230    7.8260   32.2740 C   0  0  0  0  0  0  0  0  0  0  0  0
   19.6430    9.0770   32.7470 C   0  0  0  0  0  0  0  0  0  0  0  0
   18.5060    9.1140   33.5130 N   0  0  0  0  0  0  0  0  0  0  0  0
   20.3410   10.2760   32.3920 C   0  0  0  0  0  0  0  0  0  0  0  0
   19.9440   11.5730   32.7800 C   0  0  0  0  0  0  0  0  0  0  0  0
   19.6700   12.6640   33.0590 N   0  0  0  0  0  0  0  0  0  0  0  0
   21.8370    6.6290   30.9150 N   0  0  0  0  0  0  0  0  0  0  0  0
   21.2500    5.3480   30.8450 C   0  0  0  0  0  0  0  0  0  0  0  0
   20.1670    5.0900   31.3260 O   0  0  0  0  0  0  0  0  0  0  0  0
   22.0730    4.3520   30.0360 C   0  0  0  0  0  0  0  0  0  0  0  0
   23.4400    4.0820   30.5920 C   0  0  0  0  0  0  0  0  0  0  0  0
   24.5370    4.9440   30.2750 C   0  0  0  0  0  0  0  0  0  0  0  0
   24.1770    5.9990   29.4450 O   0  0  0  0  0  0  0  0  0  0  0  0
   25.1360    7.0790   29.2720 C   0  0  0  0  0  0  0  0  0  0  0  0
   25.8180    4.6970   30.7430 C   0  0  0  0  0  0  0  0  0  0  0  0
   26.0490    3.5790   31.5720 C   0  0  0  0  0  0  0  0  0  0  0  0
   27.4020    3.3220   32.0730 N   0  3  0  0  0  0  0  0  0  0  0  0
   27.5380    2.5230   32.9860 O   0  5  0  0  0  0  0  0  0  0  0  0
   28.3400    3.9140   31.5530 O   0  0  0  0  0  0  0  0  0  0  0  0
   24.9770    2.7150   31.8940 C   0  0  0  0  0  0  0  0  0  0  0  0
   23.6810    2.9730   31.3880 C   0  0  0  0  0  0  0  0  0  0  0  0
   25.3240    1.6740   32.7020 O   0  0  0  0  0  0  0  0  0  0  0  0
   24.3250    0.6390   32.9420 C   0  0  0  0  0  0  0  0  0  0  0  0
   25.2690   10.7640   30.0100 H   0  0  0  0  0  0  0  0  0  0  0  0
   24.7780   11.5900   31.5440 H   0  0  0  0  0  0  0  0  0  0  0  0
   24.4070    9.8330   31.2900 H   0  0  0  0  0  0  0  0  0  0  0  0
   23.1470   12.2610   29.7860 H   0  0  0  0  0  0  0  0  0  0  0  0
   22.8750   10.4910   29.3330 H   0  0  0  0  0  0  0  0  0  0  0  0
   19.5860    6.9100   32.5280 H   0  0  0  0  0  0  0  0  0  0  0  0
   18.0100    8.2410   33.7730 H   0  0  0  0  0  0  0  0  0  0  0  0
   18.1020    9.9990   33.8210 H   0  0  0  0  0  0  0  0  0  0  0  0
   22.7460    6.7820   30.4100 H   0  0  0  0  0  0  0  0  0  0  0  0
   21.4990    3.3890   29.9730 H   0  0  0  0  0  0  0  0  0  0  0  0
   22.1830    4.7680   28.9950 H   0  0  0  0  0  0  0  0  0  0  0  0
   25.4940    7.4510   30.2560 H   0  0  0  0  0  0  0  0  0  0  0  0
   25.9660    6.7240   28.6240 H   0  0  0  0  0  0  0  0  0  0  0  0
   24.5100    7.8450   28.7570 H   0  0  0  0  0  0  0  0  0  0  0  0
   26.6590    5.3450   30.4690 H   0  0  0  0  0  0  0  0  0  0  0  0
   22.8640    2.2860   31.6230 H   0  0  0  0  0  0  0  0  0  0  0  0
   24.9100   -0.0960   33.5460 H   0  0  0  0  0  0  0  0  0  0  0  0
   23.4780    1.0540   33.5300 H   0  0  0  0  0  0  0  0  0  0  0  0
   23.9980    0.1930   31.9780 H   0  0  0  0  0  0  0  0  0  0  0  0
  1  2  1  0  0  0  0
  1 30  1  0  0  0  0
  1 31  1  0  0  0  0
  1 32  1  0  0  0  0
  2  3  1  0  0  0  0
  2 33  1  0  0  0  0
  2 34  1  0  0  0  0
  3  4  1  0  0  0  0
  4 10  2  0  0  0  0
  4  5  1  0  0  0  0
  5  6  2  0  0  0  0
  6  7  1  0  0  0  0
  6 13  1  0  0  0  0
  7  8  2  0  0  0  0
  7 35  1  0  0  0  0
  8  9  1  0  0  0  0
  8 10  1  0  0  0  0
  9 36  1  0  0  0  0
  9 37  1  0  0  0  0
 10 11  1  0  0  0  0
 11 12  3  0  0  0  0
 13 14  1  0  0  0  0
 13 38  1  0  0  0  0
 14 15  2  0  0  0  0
 14 16  1  0  0  0  0
 16 17  1  0  0  0  0
 16 39  1  0  0  0  0
 16 40  1  0  0  0  0
 17 27  2  0  0  0  0
 17 18  1  0  0  0  0
 18 19  1  0  0  0  0
 18 21  2  0  0  0  0
 19 20  1  0  0  0  0
 20 41  1  0  0  0  0
 20 42  1  0  0  0  0
 20 43  1  0  0  0  0
 21 22  1  0  0  0  0
 21 44  1  0  0  0  0
 22 23  1  0  0  0  0
 22 26  2  0  0  0  0
 23 24  1  0  0  0  0
 23 25  2  0  0  0  0
 26 27  1  0  0  0  0
 26 28  1  0  0  0  0
 27 45  1  0  0  0  0
 28 29  1  0  0  0  0
 29 46  1  0  0  0  0
 29 47  1  0  0  0  0
 29 48  1  0  0  0  0
M  CHG  2  23   1  24  -1
M  END
$$$$
