18639-1
 OpenBabel02232411163D
Structure written by MMmdl.
 48 49  0  0  0  0  0  0  0  0999 V2000
   23.8320   12.6970   30.3400 C   0  0  0  0  0  0  0  0  0  0  0  0
   23.3840   11.2520   30.4430 C   0  0  0  0  0  0  0  0  0  0  0  0
   22.1340   11.3430   31.2420 O   0  0  0  0  0  0  0  0  0  0  0  0
   21.5150   10.1980   31.5970 C   0  0  0  0  0  0  0  0  0  0  0  0
   22.0160    9.0110   31.1770 N   0  0  0  0  0  0  0  0  0  0  0  0
   21.2980    7.8690   31.4990 C   0  0  0  0  0  0  0  0  0  0  0  0
   20.1350    7.9000   32.2620 C   0  0  0  0  0  0  0  0  0  0  0  0
   19.6290    9.1480   32.7150 C   0  0  0  0  0  0  0  0  0  0  0  0
   18.4810    9.1800   33.4650 N   0  0  0  0  0  0  0  0  0  0  0  0
   20.3240   10.3500   32.3680 C   0  0  0  0  0  0  0  0  0  0  0  0
   19.8840   11.6490   32.7010 C   0  0  0  0  0  0  0  0  0  0  0  0
   19.5700   12.7420   32.9310 N   0  0  0  0  0  0  0  0  0  0  0  0
   21.8800    6.7010   30.9500 N   0  0  0  0  0  0  0  0  0  0  0  0
   21.2790    5.4260   30.8770 C   0  0  0  0  0  0  0  0  0  0  0  0
   20.1880    5.1850   31.3510 O   0  0  0  0  0  0  0  0  0  0  0  0
   22.0890    4.4090   30.0810 C   0  0  0  0  0  0  0  0  0  0  0  0
   23.4420    4.1090   30.6570 C   0  0  0  0  0  0  0  0  0  0  0  0
   24.5600    4.9450   30.3460 C   0  0  0  0  0  0  0  0  0  0  0  0
   24.2310    5.9890   29.4920 O   0  0  0  0  0  0  0  0  0  0  0  0
   25.2240    7.0310   29.2860 C   0  0  0  0  0  0  0  0  0  0  0  0
   25.8270    4.6840   30.8430 C   0  0  0  0  0  0  0  0  0  0  0  0
   26.0230    3.5710   31.6880 C   0  0  0  0  0  0  0  0  0  0  0  0
   27.3610    3.2970   32.2180 N   0  3  0  0  0  0  0  0  0  0  0  0
   27.4660    2.5020   33.1400 O   0  5  0  0  0  0  0  0  0  0  0  0
   28.3190    3.8700   31.7120 O   0  0  0  0  0  0  0  0  0  0  0  0
   24.9310    2.7250   31.9950 C   0  0  0  0  0  0  0  0  0  0  0  0
   23.6480    3.0020   31.4640 C   0  0  0  0  0  0  0  0  0  0  0  0
   25.2470    1.6830   32.8140 O   0  0  0  0  0  0  0  0  0  0  0  0
   24.2310    0.6590   33.0310 C   0  0  0  0  0  0  0  0  0  0  0  0
   24.7680   12.7380   29.7280 H   0  0  0  0  0  0  0  0  0  0  0  0
   23.0590   13.3210   29.8320 H   0  0  0  0  0  0  0  0  0  0  0  0
   24.0400   13.1310   31.3440 H   0  0  0  0  0  0  0  0  0  0  0  0
   23.1170   10.8150   29.4540 H   0  0  0  0  0  0  0  0  0  0  0  0
   24.1090   10.6160   30.9980 H   0  0  0  0  0  0  0  0  0  0  0  0
   19.5930    6.9830   32.5020 H   0  0  0  0  0  0  0  0  0  0  0  0
   17.9780    8.3040   33.7070 H   0  0  0  0  0  0  0  0  0  0  0  0
   18.0610   10.0620   33.7580 H   0  0  0  0  0  0  0  0  0  0  0  0
   22.8010    6.8390   30.4660 H   0  0  0  0  0  0  0  0  0  0  0  0
   21.4940    3.4590   30.0160 H   0  0  0  0  0  0  0  0  0  0  0  0
   22.2220    4.8160   29.0380 H   0  0  0  0  0  0  0  0  0  0  0  0
   25.5590    7.4480   30.2600 H   0  0  0  0  0  0  0  0  0  0  0  0
   26.0640    6.6230   28.6850 H   0  0  0  0  0  0  0  0  0  0  0  0
   24.6340    7.7810   28.7100 H   0  0  0  0  0  0  0  0  0  0  0  0
   26.6830    5.3170   30.5830 H   0  0  0  0  0  0  0  0  0  0  0  0
   22.8150    2.3310   31.6900 H   0  0  0  0  0  0  0  0  0  0  0  0
   24.7950   -0.0820   33.6460 H   0  0  0  0  0  0  0  0  0  0  0  0
   23.3760    1.0820   33.6000 H   0  0  0  0  0  0  0  0  0  0  0  0
   23.9200    0.2180   32.0590 H   0  0  0  0  0  0  0  0  0  0  0  0
  1  2  1  0  0  0  0
  1 30  1  0  0  0  0
  1 31  1  0  0  0  0
  1 32  1  0  0  0  0
  2  3  1  0  0  0  0
  2 33  1  0  0  0  0
  2 34  1  0  0  0  0
  3  4  1  0  0  0  0
  4 10  2  0  0  0  0
  4  5  1  0  0  0  0
  5  6  2  0  0  0  0
  6  7  1  0  0  0  0
  6 13  1  0  0  0  0
  7  8  2  0  0  0  0
  7 35  1  0  0  0  0
  8  9  1  0  0  0  0
  8 10  1  0  0  0  0
  9 36  1  0  0  0  0
  9 37  1  0  0  0  0
 10 11  1  0  0  0  0
 11 12  3  0  0  0  0
 13 14  1  0  0  0  0
 13 38  1  0  0  0  0
 14 15  2  0  0  0  0
 14 16  1  0  0  0  0
 16 17  1  0  0  0  0
 16 39  1  0  0  0  0
 16 40  1  0  0  0  0
 17 27  2  0  0  0  0
 17 18  1  0  0  0  0
 18 19  1  0  0  0  0
 18 21  2  0  0  0  0
 19 20  1  0  0  0  0
 20 41  1  0  0  0  0
 20 42  1  0  0  0  0
 20 43  1  0  0  0  0
 21 22  1  0  0  0  0
 21 44  1  0  0  0  0
 22 23  1  0  0  0  0
 22 26  2  0  0  0  0
 23 24  1  0  0  0  0
 23 25  2  0  0  0  0
 26 27  1  0  0  0  0
 26 28  1  0  0  0  0
 27 45  1  0  0  0  0
 28 29  1  0  0  0  0
 29 46  1  0  0  0  0
 29 47  1  0  0  0  0
 29 48  1  0  0  0  0
M  CHG  2  23   1  24  -1
M  END
$$$$
