31
 OpenBabel04222415263D
Structure written by MMmdl.
 50 53  0  0  0  0  0  0  0  0999 V2000
    1.9500   28.8670    6.8110 C   0  0  0  0  0  0  0  0  0  0  0  0
   -1.5550   31.4420    7.9470 C   0  0  0  0  0  0  0  0  0  0  0  0
   -0.0250   25.9840    8.9150 C   0  0  0  0  0  0  0  0  0  0  0  0
   -0.8350   25.2810   10.0120 C   0  0  0  0  0  0  0  0  0  0  0  0
   -0.6640   23.7590    9.8100 C   0  0  0  0  0  0  0  0  0  0  0  0
   -1.3500   22.9660   10.9320 C   0  0  0  0  0  0  0  0  0  0  0  0
   -0.8580   23.4080   12.3190 C   0  0  0  0  0  0  0  0  0  0  0  0
   -1.0530   24.9190   12.5220 C   0  0  0  0  0  0  0  0  0  0  0  0
   -0.3640   25.7240   11.4110 C   0  0  0  0  0  0  0  0  0  0  0  0
    5.4550   25.7130    5.4460 C   0  0  0  0  0  0  0  0  0  0  0  0
    5.3900   24.9160    6.5920 C   0  0  0  0  0  0  0  0  0  0  0  0
    4.5920   25.2950    7.6690 C   0  0  0  0  0  0  0  0  0  0  0  0
    3.8380   26.4730    7.6130 C   0  0  0  0  0  0  0  0  0  0  0  0
    1.2460   27.9100    7.5340 N   0  0  0  0  0  0  0  0  0  0  0  0
    0.0400   28.2320    8.0710 C   0  0  0  0  0  0  0  0  0  0  0  0
   -0.6430   27.3300    8.7900 O   0  0  0  0  0  0  0  0  0  0  0  0
   -0.4960   29.5350    7.8910 C   0  0  0  0  0  0  0  0  0  0  0  0
   -1.6500   30.1760    8.3600 N   0  0  0  0  0  0  0  0  0  0  0  0
   -0.3430   31.6860    7.2080 N   0  0  0  0  0  0  0  0  0  0  0  0
    0.3290   30.4690    7.1430 C   0  0  0  0  0  0  0  0  0  0  0  0
    1.5300   30.1630    6.5540 N   0  0  0  0  0  0  0  0  0  0  0  0
    3.1960   28.5120    6.3050 N   0  0  0  0  0  0  0  0  0  0  0  0
    3.8860   27.2670    6.4550 C   0  0  0  0  0  0  0  0  0  0  0  0
    4.7160   26.8900    5.3750 C   0  0  0  0  0  0  0  0  0  0  0  0
   -2.2650   32.2420    8.1360 H   0  0  0  0  0  0  0  0  0  0  0  0
    1.0440   26.0980    9.2000 H   0  0  0  0  0  0  0  0  0  0  0  0
   -0.1450   25.5040    7.9220 H   0  0  0  0  0  0  0  0  0  0  0  0
   -1.9160   25.5410    9.9080 H   0  0  0  0  0  0  0  0  0  0  0  0
   -1.1050   23.4630    8.8330 H   0  0  0  0  0  0  0  0  0  0  0  0
    0.4250   23.5050    9.8030 H   0  0  0  0  0  0  0  0  0  0  0  0
   -2.4480   23.1280   10.8720 H   0  0  0  0  0  0  0  0  0  0  0  0
   -1.1360   21.8800   10.8000 H   0  0  0  0  0  0  0  0  0  0  0  0
   -1.4220   22.8530   13.1040 H   0  0  0  0  0  0  0  0  0  0  0  0
    0.2250   23.1640   12.4150 H   0  0  0  0  0  0  0  0  0  0  0  0
   -2.1420   25.1530   12.5430 H   0  0  0  0  0  0  0  0  0  0  0  0
   -0.6140   25.2150   13.5030 H   0  0  0  0  0  0  0  0  0  0  0  0
    0.7390   25.5740   11.5000 H   0  0  0  0  0  0  0  0  0  0  0  0
   -0.5850   26.8070   11.5500 H   0  0  0  0  0  0  0  0  0  0  0  0
    6.0660   25.4150    4.5850 H   0  0  0  0  0  0  0  0  0  0  0  0
    4.5170   24.6750    8.5690 H   0  0  0  0  0  0  0  0  0  0  0  0
    3.2100   26.7480    8.4630 H   0  0  0  0  0  0  0  0  0  0  0  0
   -0.0900   32.5680    6.7410 H   0  0  0  0  0  0  0  0  0  0  0  0
    3.6490   29.1680    5.6220 H   0  0  0  0  0  0  0  0  0  0  0  0
    4.7830   27.5090    4.4800 H   0  0  0  0  0  0  0  0  0  0  0  0
    6.3860   23.4320    6.4850 S   0  3  1  0  0  0  0  0  0  0  0  0
    7.5760   23.6510    7.3870 O   0  5  0  0  0  0  0  0  0  0  0  0
    5.2690   22.2520    7.2860 C   0  0  0  0  0  0  0  0  0  0  0  0
    4.3000   22.2700    6.7290 H   0  0  0  0  0  0  0  0  0  0  0  0
    5.0640   22.4550    8.3560 H   0  0  0  0  0  0  0  0  0  0  0  0
    5.7040   21.2340    7.1730 H   0  0  0  0  0  0  0  0  0  0  0  0
  1 14  2  0  0  0  0
  1 21  1  0  0  0  0
  1 22  1  0  0  0  0
  2 18  2  0  0  0  0
  2 19  1  0  0  0  0
  2 25  1  0  0  0  0
  3  4  1  0  0  0  0
  3 16  1  0  0  0  0
  3 26  1  0  0  0  0
  3 27  1  0  0  0  0
  4  5  1  0  0  0  0
  4  9  1  0  0  0  0
  4 28  1  0  0  0  0
  5  6  1  0  0  0  0
  5 29  1  0  0  0  0
  5 30  1  0  0  0  0
  6  7  1  0  0  0  0
  6 31  1  0  0  0  0
  6 32  1  0  0  0  0
  7  8  1  0  0  0  0
  7 33  1  0  0  0  0
  7 34  1  0  0  0  0
  8  9  1  0  0  0  0
  8 35  1  0  0  0  0
  8 36  1  0  0  0  0
  9 37  1  0  0  0  0
  9 38  1  0  0  0  0
 10 11  2  0  0  0  0
 10 24  1  0  0  0  0
 10 39  1  0  0  0  0
 11 12  1  0  0  0  0
 11 45  1  0  0  0  0
 12 13  2  0  0  0  0
 12 40  1  0  0  0  0
 13 23  1  0  0  0  0
 13 41  1  0  0  0  0
 14 15  1  0  0  0  0
 15 16  1  0  0  0  0
 15 17  2  0  0  0  0
 17 18  1  0  0  0  0
 17 20  1  0  0  0  0
 19 20  1  0  0  0  0
 19 42  1  0  0  0  0
 20 21  2  0  0  0  0
 22 23  1  0  0  0  0
 22 43  1  0  0  0  0
 23 24  2  0  0  0  0
 24 44  1  0  0  0  0
 45 46  1  1  0  0  0
 45 47  1  0  0  0  0
 47 48  1  0  0  0  0
 47 49  1  0  0  0  0
 47 50  1  0  0  0  0
M  CHG  2  45   1  46  -1
M  END
$$$$
