18659-1
 OpenBabel02232411163D
Structure written by MMmdl.
 50 51  0  0  0  0  0  0  0  0999 V2000
   22.6390   13.8660   28.8860 C   0  0  0  0  0  0  0  0  0  0  0  0
   23.0230   13.6300   30.2580 O   0  0  0  0  0  0  0  0  0  0  0  0
   23.9290   12.5300   30.4350 C   0  0  0  0  0  0  0  0  0  0  0  0
   23.2610   11.1510   30.3310 C   0  0  0  0  0  0  0  0  0  0  0  0
   22.1250   11.2220   31.2660 O   0  0  0  0  0  0  0  0  0  0  0  0
   21.4990   10.0690   31.6020 C   0  0  0  0  0  0  0  0  0  0  0  0
   21.9520    8.8900   31.1170 N   0  0  0  0  0  0  0  0  0  0  0  0
   21.2400    7.7460   31.4530 C   0  0  0  0  0  0  0  0  0  0  0  0
   20.1090    7.7760   32.2640 C   0  0  0  0  0  0  0  0  0  0  0  0
   19.6410    9.0210   32.7630 C   0  0  0  0  0  0  0  0  0  0  0  0
   18.5040    9.0580   33.5310 N   0  0  0  0  0  0  0  0  0  0  0  0
   20.3510   10.2200   32.4340 C   0  0  0  0  0  0  0  0  0  0  0  0
   19.9630   11.5150   32.8400 C   0  0  0  0  0  0  0  0  0  0  0  0
   19.6940   12.6050   33.1310 N   0  0  0  0  0  0  0  0  0  0  0  0
   21.7960    6.5900   30.8650 N   0  0  0  0  0  0  0  0  0  0  0  0
   21.2390    5.2890   30.8500 C   0  0  0  0  0  0  0  0  0  0  0  0
   20.1850    5.0180   31.3850 O   0  0  0  0  0  0  0  0  0  0  0  0
   22.0610    4.2950   30.0400 C   0  0  0  0  0  0  0  0  0  0  0  0
   23.4070    4.0300   30.6480 C   0  0  0  0  0  0  0  0  0  0  0  0
   24.5150    4.8770   30.3500 C   0  0  0  0  0  0  0  0  0  0  0  0
   24.1920    5.9050   29.4690 O   0  0  0  0  0  0  0  0  0  0  0  0
   25.1640    6.9720   29.3060 C   0  0  0  0  0  0  0  0  0  0  0  0
   25.7760    4.6490   30.8890 C   0  0  0  0  0  0  0  0  0  0  0  0
   25.9710    3.5710   31.7650 C   0  0  0  0  0  0  0  0  0  0  0  0
   24.8920    2.7420   32.0660 C   0  0  0  0  0  0  0  0  0  0  0  0
   23.6110    2.9520   31.4970 C   0  0  0  0  0  0  0  0  0  0  0  0
   24.9150    1.6530   32.9130 O   0  0  0  0  0  0  0  0  0  0  0  0
   26.1710    1.3390   33.5680 C   0  0  0  0  0  0  0  0  0  0  0  0
   23.5430   14.0420   28.2600 H   0  0  0  0  0  0  0  0  0  0  0  0
   22.0520   13.0050   28.5030 H   0  0  0  0  0  0  0  0  0  0  0  0
   22.0210   14.7870   28.9750 H   0  0  0  0  0  0  0  0  0  0  0  0
   24.3050   12.7160   31.4700 H   0  0  0  0  0  0  0  0  0  0  0  0
   24.7630   12.5730   29.6890 H   0  0  0  0  0  0  0  0  0  0  0  0
   22.8450   10.9420   29.3210 H   0  0  0  0  0  0  0  0  0  0  0  0
   23.9710   10.3490   30.6480 H   0  0  0  0  0  0  0  0  0  0  0  0
   19.5650    6.8620   32.5080 H   0  0  0  0  0  0  0  0  0  0  0  0
   18.0110    8.1870   33.8030 H   0  0  0  0  0  0  0  0  0  0  0  0
   18.1160    9.9410   33.8620 H   0  0  0  0  0  0  0  0  0  0  0  0
   22.7020    6.7430   30.3520 H   0  0  0  0  0  0  0  0  0  0  0  0
   21.4860    3.3360   29.9600 H   0  0  0  0  0  0  0  0  0  0  0  0
   22.2010    4.7150   29.0060 H   0  0  0  0  0  0  0  0  0  0  0  0
   26.0410    6.5890   28.7430 H   0  0  0  0  0  0  0  0  0  0  0  0
   25.4560    7.3910   30.2940 H   0  0  0  0  0  0  0  0  0  0  0  0
   24.5880    7.7150   28.7100 H   0  0  0  0  0  0  0  0  0  0  0  0
   26.6300    5.2860   30.6460 H   0  0  0  0  0  0  0  0  0  0  0  0
   26.9680    3.4130   32.1820 H   0  0  0  0  0  0  0  0  0  0  0  0
   22.8060    2.2520   31.7370 H   0  0  0  0  0  0  0  0  0  0  0  0
   25.8920    0.4490   34.1800 H   0  0  0  0  0  0  0  0  0  0  0  0
   26.4930    2.1860   34.2120 H   0  0  0  0  0  0  0  0  0  0  0  0
   26.9440    1.0790   32.8120 H   0  0  0  0  0  0  0  0  0  0  0  0
  1  2  1  0  0  0  0
  1 29  1  0  0  0  0
  1 30  1  0  0  0  0
  1 31  1  0  0  0  0
  2  3  1  0  0  0  0
  3  4  1  0  0  0  0
  3 32  1  0  0  0  0
  3 33  1  0  0  0  0
  4  5  1  0  0  0  0
  4 34  1  0  0  0  0
  4 35  1  0  0  0  0
  5  6  1  0  0  0  0
  6 12  2  0  0  0  0
  6  7  1  0  0  0  0
  7  8  2  0  0  0  0
  8  9  1  0  0  0  0
  8 15  1  0  0  0  0
  9 10  2  0  0  0  0
  9 36  1  0  0  0  0
 10 11  1  0  0  0  0
 10 12  1  0  0  0  0
 11 37  1  0  0  0  0
 11 38  1  0  0  0  0
 12 13  1  0  0  0  0
 13 14  3  0  0  0  0
 15 16  1  0  0  0  0
 15 39  1  0  0  0  0
 16 17  2  0  0  0  0
 16 18  1  0  0  0  0
 18 19  1  0  0  0  0
 18 40  1  0  0  0  0
 18 41  1  0  0  0  0
 19 26  2  0  0  0  0
 19 20  1  0  0  0  0
 20 21  1  0  0  0  0
 20 23  2  0  0  0  0
 21 22  1  0  0  0  0
 22 42  1  0  0  0  0
 22 43  1  0  0  0  0
 22 44  1  0  0  0  0
 23 24  1  0  0  0  0
 23 45  1  0  0  0  0
 24 25  2  0  0  0  0
 24 46  1  0  0  0  0
 25 26  1  0  0  0  0
 25 27  1  0  0  0  0
 26 47  1  0  0  0  0
 27 28  1  0  0  0  0
 28 48  1  0  0  0  0
 28 49  1  0  0  0  0
 28 50  1  0  0  0  0
M  END
$$$$
