p38a_2z
 OpenBabel02232411163D
Structure written by MMmdl.
 45 47  0  0  0  0  0  0  0  0999 V2000
   38.2920   36.5730   17.1100 C   0  0  0  0  0  0  0  0  0  0  0  0
   34.5700   35.0280   21.1110 C   0  0  0  0  0  0  0  0  0  0  0  0
   37.4850   36.1060   18.1430 C   0  0  0  0  0  0  0  0  0  0  0  0
   34.0390   38.9980   23.8360 C   0  0  0  0  0  0  0  0  0  0  0  0
   33.4640   38.8840   26.3430 C   0  0  0  0  0  0  0  0  0  0  0  0
   34.6870   37.8980   21.3800 C   0  0  0  0  0  0  0  0  0  0  0  0
   35.0590   37.2910   20.1320 C   0  0  0  0  0  0  0  0  0  0  0  0
   37.6680   36.7600   15.8690 C   0  0  0  0  0  0  0  0  0  0  0  0
   36.3200   36.4800   15.6320 C   0  0  0  0  0  0  0  0  0  0  0  0
   35.5340   35.9960   16.6830 C   0  0  0  0  0  0  0  0  0  0  0  0
   34.3360   37.0790   22.4920 C   0  0  0  0  0  0  0  0  0  0  0  0
   34.6590   39.3040   21.5880 C   0  0  0  0  0  0  0  0  0  0  0  0
   35.0270   35.9410   20.0310 C   0  0  0  0  0  0  0  0  0  0  0  0
   36.1220   35.8020   17.9360 C   0  0  0  0  0  0  0  0  0  0  0  0
   33.9380   34.8510   23.5480 C   0  0  0  0  0  0  0  0  0  0  0  0
   37.9940   35.9440   19.3580 F   0  0  0  0  0  0  0  0  0  0  0  0
   35.3710   35.1620   18.9280 O   0  0  0  0  0  0  0  0  0  0  0  0
   34.3500   39.8660   22.7650 N   0  0  0  0  0  0  0  0  0  0  0  0
   34.4310   33.8290   21.0080 O   0  0  0  0  0  0  0  0  0  0  0  0
   34.2800   35.6830   22.3600 N   0  0  0  0  0  0  0  0  0  0  0  0
   34.0210   37.6210   23.7120 N   0  0  0  0  0  0  0  0  0  0  0  0
   33.6560   39.5800   25.0190 N   0  0  0  0  0  0  0  0  0  0  0  0
   39.3460   36.8180   17.2680 H   0  0  0  0  0  0  0  0  0  0  0  0
   32.8240   39.9280   27.2790 C   0  0  0  0  0  0  0  0  0  0  0  0
   35.3640   37.9410   19.3100 H   0  0  0  0  0  0  0  0  0  0  0  0
   35.8690   36.6490   14.6530 H   0  0  0  0  0  0  0  0  0  0  0  0
   34.4710   35.7880   16.5190 H   0  0  0  0  0  0  0  0  0  0  0  0
   34.8940   39.9860   20.7530 H   0  0  0  0  0  0  0  0  0  0  0  0
   34.6010   35.1240   24.4130 H   0  0  0  0  0  0  0  0  0  0  0  0
   32.8700   35.0300   23.8440 H   0  0  0  0  0  0  0  0  0  0  0  0
   34.0780   33.7640   23.3130 H   0  0  0  0  0  0  0  0  0  0  0  0
   33.7330   40.6200   25.0970 H   0  0  0  0  0  0  0  0  0  0  0  0
   38.3880   37.2680   14.8720 F   0  0  0  0  0  0  0  0  0  0  0  0
   32.5270   37.6290   26.2650 C   0  0  0  0  0  0  0  0  0  0  0  0
   34.8380   38.4470   26.8850 C   0  0  0  0  0  0  0  0  0  0  0  0
   31.4830   37.7580   25.2950 O   0  0  0  0  0  0  0  0  0  0  0  0
   31.9060   37.6660   24.4110 H   0  0  0  0  0  0  0  0  0  0  0  0
   33.1240   36.7130   26.0440 H   0  0  0  0  0  0  0  0  0  0  0  0
   31.9790   37.5130   27.2310 H   0  0  0  0  0  0  0  0  0  0  0  0
   34.7150   37.9900   27.8950 H   0  0  0  0  0  0  0  0  0  0  0  0
   35.3170   37.6950   26.2190 H   0  0  0  0  0  0  0  0  0  0  0  0
   35.5180   39.3220   26.9850 H   0  0  0  0  0  0  0  0  0  0  0  0
   32.6340   39.4770   28.2800 H   0  0  0  0  0  0  0  0  0  0  0  0
   33.4990   40.8000   27.4340 H   0  0  0  0  0  0  0  0  0  0  0  0
   31.8620   40.2880   26.8540 H   0  0  0  0  0  0  0  0  0  0  0  0
  1  3  2  0  0  0  0
  1  8  1  0  0  0  0
  1 23  1  0  0  0  0
  2 13  1  0  0  0  0
  2 19  2  0  0  0  0
  2 20  1  0  0  0  0
  3 14  1  0  0  0  0
  3 16  1  0  0  0  0
  4 18  2  0  0  0  0
  4 21  1  0  0  0  0
  4 22  1  0  0  0  0
  5 22  1  0  0  0  0
  5 24  1  0  0  0  0
  5 34  1  0  0  0  0
  5 35  1  0  0  0  0
  6  7  1  0  0  0  0
  6 11  1  0  0  0  0
  6 12  2  0  0  0  0
  7 13  2  0  0  0  0
  7 25  1  0  0  0  0
  8  9  2  0  0  0  0
  8 33  1  0  0  0  0
  9 10  1  0  0  0  0
  9 26  1  0  0  0  0
 10 14  2  0  0  0  0
 10 27  1  0  0  0  0
 11 20  1  0  0  0  0
 11 21  2  0  0  0  0
 12 18  1  0  0  0  0
 12 28  1  0  0  0  0
 13 17  1  0  0  0  0
 14 17  1  0  0  0  0
 15 20  1  0  0  0  0
 15 29  1  0  0  0  0
 15 30  1  0  0  0  0
 15 31  1  0  0  0  0
 22 32  1  0  0  0  0
 24 43  1  0  0  0  0
 24 44  1  0  0  0  0
 24 45  1  0  0  0  0
 34 36  1  0  0  0  0
 34 38  1  0  0  0  0
 34 39  1  0  0  0  0
 35 40  1  0  0  0  0
 35 41  1  0  0  0  0
 35 42  1  0  0  0  0
 36 37  1  0  0  0  0
M  END
$$$$
