18639-1
 OpenBabel02232411163D
Structure written by MMmdl.
 48 49  0  0  0  0  0  0  0  0999 V2000
   23.8380   12.6550   30.3340 C   0  0  0  0  0  0  0  0  0  0  0  0
   23.3890   11.2110   30.4480 C   0  0  0  0  0  0  0  0  0  0  0  0
   22.1390   11.3100   31.2460 O   0  0  0  0  0  0  0  0  0  0  0  0
   21.5110   10.1680   31.5950 C   0  0  0  0  0  0  0  0  0  0  0  0
   22.0010    8.9800   31.1640 N   0  0  0  0  0  0  0  0  0  0  0  0
   21.2770    7.8400   31.4820 C   0  0  0  0  0  0  0  0  0  0  0  0
   20.1170    7.8740   32.2490 C   0  0  0  0  0  0  0  0  0  0  0  0
   19.6220    9.1230   32.7120 C   0  0  0  0  0  0  0  0  0  0  0  0
   18.4760    9.1570   33.4660 N   0  0  0  0  0  0  0  0  0  0  0  0
   20.3230   10.3230   32.3700 C   0  0  0  0  0  0  0  0  0  0  0  0
   19.8930   11.6220   32.7140 C   0  0  0  0  0  0  0  0  0  0  0  0
   19.5870   12.7150   32.9530 N   0  0  0  0  0  0  0  0  0  0  0  0
   21.8550    6.6740   30.9270 N   0  0  0  0  0  0  0  0  0  0  0  0
   21.2580    5.3980   30.8530 C   0  0  0  0  0  0  0  0  0  0  0  0
   20.1690    5.1510   31.3270 O   0  0  0  0  0  0  0  0  0  0  0  0
   22.0720    4.3880   30.0510 C   0  0  0  0  0  0  0  0  0  0  0  0
   23.4320    4.0960   30.6130 C   0  0  0  0  0  0  0  0  0  0  0  0
   24.5420    4.9410   30.2950 C   0  0  0  0  0  0  0  0  0  0  0  0
   24.1990    5.9920   29.4540 O   0  0  0  0  0  0  0  0  0  0  0  0
   25.1740    7.0560   29.2750 C   0  0  0  0  0  0  0  0  0  0  0  0
   25.8170    4.6800   30.7700 C   0  0  0  0  0  0  0  0  0  0  0  0
   26.0300    3.5590   31.6010 C   0  0  0  0  0  0  0  0  0  0  0  0
   27.3800    3.2810   32.1010 N   0  3  0  0  0  0  0  0  0  0  0  0
   27.5040    2.4760   33.0110 O   0  5  0  0  0  0  0  0  0  0  0  0
   28.3270    3.8610   31.5830 O   0  0  0  0  0  0  0  0  0  0  0  0
   24.9450    2.7100   31.9200 C   0  0  0  0  0  0  0  0  0  0  0  0
   23.6540    2.9850   31.4110 C   0  0  0  0  0  0  0  0  0  0  0  0
   25.2770    1.6650   32.7300 O   0  0  0  0  0  0  0  0  0  0  0  0
   24.2660    0.6400   32.9630 C   0  0  0  0  0  0  0  0  0  0  0  0
   24.0610   13.0920   31.3330 H   0  0  0  0  0  0  0  0  0  0  0  0
   23.0600   13.2780   29.8330 H   0  0  0  0  0  0  0  0  0  0  0  0
   24.7670   12.6910   29.7100 H   0  0  0  0  0  0  0  0  0  0  0  0
   23.1240   10.7670   29.4630 H   0  0  0  0  0  0  0  0  0  0  0  0
   24.1130   10.5790   31.0100 H   0  0  0  0  0  0  0  0  0  0  0  0
   19.5690    6.9590   32.4830 H   0  0  0  0  0  0  0  0  0  0  0  0
   17.9730    8.2830   33.7120 H   0  0  0  0  0  0  0  0  0  0  0  0
   18.0640   10.0410   33.7660 H   0  0  0  0  0  0  0  0  0  0  0  0
   22.7760    6.8150   30.4420 H   0  0  0  0  0  0  0  0  0  0  0  0
   21.4830    3.4340   29.9880 H   0  0  0  0  0  0  0  0  0  0  0  0
   22.1930    4.8000   29.0090 H   0  0  0  0  0  0  0  0  0  0  0  0
   25.5080    7.4510   30.2590 H   0  0  0  0  0  0  0  0  0  0  0  0
   26.0180    6.6780   28.6600 H   0  0  0  0  0  0  0  0  0  0  0  0
   24.5700    7.8130   28.7230 H   0  0  0  0  0  0  0  0  0  0  0  0
   26.6670    5.3190   30.5030 H   0  0  0  0  0  0  0  0  0  0  0  0
   22.8270    2.3100   31.6450 H   0  0  0  0  0  0  0  0  0  0  0  0
   24.8400   -0.1000   33.5710 H   0  0  0  0  0  0  0  0  0  0  0  0
   23.4190    1.0630   33.5450 H   0  0  0  0  0  0  0  0  0  0  0  0
   23.9420    0.1970   31.9970 H   0  0  0  0  0  0  0  0  0  0  0  0
  1  2  1  0  0  0  0
  1 30  1  0  0  0  0
  1 31  1  0  0  0  0
  1 32  1  0  0  0  0
  2  3  1  0  0  0  0
  2 33  1  0  0  0  0
  2 34  1  0  0  0  0
  3  4  1  0  0  0  0
  4 10  2  0  0  0  0
  4  5  1  0  0  0  0
  5  6  2  0  0  0  0
  6  7  1  0  0  0  0
  6 13  1  0  0  0  0
  7  8  2  0  0  0  0
  7 35  1  0  0  0  0
  8  9  1  0  0  0  0
  8 10  1  0  0  0  0
  9 36  1  0  0  0  0
  9 37  1  0  0  0  0
 10 11  1  0  0  0  0
 11 12  3  0  0  0  0
 13 14  1  0  0  0  0
 13 38  1  0  0  0  0
 14 15  2  0  0  0  0
 14 16  1  0  0  0  0
 16 17  1  0  0  0  0
 16 39  1  0  0  0  0
 16 40  1  0  0  0  0
 17 27  2  0  0  0  0
 17 18  1  0  0  0  0
 18 19  1  0  0  0  0
 18 21  2  0  0  0  0
 19 20  1  0  0  0  0
 20 41  1  0  0  0  0
 20 42  1  0  0  0  0
 20 43  1  0  0  0  0
 21 22  1  0  0  0  0
 21 44  1  0  0  0  0
 22 23  1  0  0  0  0
 22 26  2  0  0  0  0
 23 24  1  0  0  0  0
 23 25  2  0  0  0  0
 26 27  1  0  0  0  0
 26 28  1  0  0  0  0
 27 45  1  0  0  0  0
 28 29  1  0  0  0  0
 29 46  1  0  0  0  0
 29 47  1  0  0  0  0
 29 48  1  0  0  0  0
M  CHG  2  23   1  24  -1
M  END
$$$$
