p38a_2p
 OpenBabel02232411163D
Structure written by MMmdl.
 58 61  0  0  0  0  0  0  0  0999 V2000
   38.2440   36.5000   17.2000 C   0  0  0  0  0  0  0  0  0  0  0  0
   34.6060   35.1040   21.3500 C   0  0  0  0  0  0  0  0  0  0  0  0
   37.4670   36.0610   18.2690 C   0  0  0  0  0  0  0  0  0  0  0  0
   33.7740   39.2340   23.7310 C   0  0  0  0  0  0  0  0  0  0  0  0
   34.5400   37.9800   21.3960 C   0  0  0  0  0  0  0  0  0  0  0  0
   34.9490   37.3050   20.1950 C   0  0  0  0  0  0  0  0  0  0  0  0
   37.5880   36.6420   15.9690 C   0  0  0  0  0  0  0  0  0  0  0  0
   36.2360   36.3440   15.7780 C   0  0  0  0  0  0  0  0  0  0  0  0
   35.4800   35.8920   16.8660 C   0  0  0  0  0  0  0  0  0  0  0  0
   34.2120   37.2350   22.5670 C   0  0  0  0  0  0  0  0  0  0  0  0
   34.4780   39.3970   21.4940 C   0  0  0  0  0  0  0  0  0  0  0  0
   34.9980   35.9540   20.1940 C   0  0  0  0  0  0  0  0  0  0  0  0
   36.1020   35.7400   18.1080 C   0  0  0  0  0  0  0  0  0  0  0  0
   38.0100   35.9390   19.4730 F   0  0  0  0  0  0  0  0  0  0  0  0
   35.3920   35.1210   19.1470 O   0  0  0  0  0  0  0  0  0  0  0  0
   34.1280   40.0330   22.6180 N   0  0  0  0  0  0  0  0  0  0  0  0
   34.5550   33.8940   21.3370 O   0  0  0  0  0  0  0  0  0  0  0  0
   34.2990   35.8300   22.5560 N   0  0  0  0  0  0  0  0  0  0  0  0
   33.8250   37.8560   23.7310 N   0  0  0  0  0  0  0  0  0  0  0  0
   33.3440   39.9320   24.8330 N   0  0  0  0  0  0  0  0  0  0  0  0
   39.3000   36.7580   17.3220 H   0  0  0  0  0  0  0  0  0  0  0  0
   35.2160   37.9110   19.3260 H   0  0  0  0  0  0  0  0  0  0  0  0
   35.7580   36.4730   14.8040 H   0  0  0  0  0  0  0  0  0  0  0  0
   34.4140   35.6780   16.7380 H   0  0  0  0  0  0  0  0  0  0  0  0
   34.7250   40.0210   20.6180 H   0  0  0  0  0  0  0  0  0  0  0  0
   33.4670   40.9650   24.8390 H   0  0  0  0  0  0  0  0  0  0  0  0
   38.2810   37.1240   14.9400 F   0  0  0  0  0  0  0  0  0  0  0  0
   33.4230   38.2040   28.2740 C   0  0  0  0  0  0  0  0  0  0  0  0
   33.9790   38.6520   26.9160 C   0  0  0  0  0  0  0  0  0  0  0  0
   32.8720   39.3920   26.1410 C   0  0  0  0  0  0  0  0  0  0  0  0
   31.6280   38.4950   26.0010 C   0  0  0  0  0  0  0  0  0  0  0  0
   31.1760   38.0280   27.3920 C   0  0  0  0  0  0  0  0  0  0  0  0
   32.2420   37.3850   28.1280 O   0  0  0  0  0  0  0  0  0  0  0  0
   33.1770   39.0850   28.9130 H   0  0  0  0  0  0  0  0  0  0  0  0
   34.1290   37.5120   28.7900 H   0  0  0  0  0  0  0  0  0  0  0  0
   34.3240   37.7620   26.3350 H   0  0  0  0  0  0  0  0  0  0  0  0
   34.8530   39.3290   27.0740 H   0  0  0  0  0  0  0  0  0  0  0  0
   32.5820   40.3200   26.7230 H   0  0  0  0  0  0  0  0  0  0  0  0
   30.8000   39.0620   25.5110 H   0  0  0  0  0  0  0  0  0  0  0  0
   31.8650   37.6040   25.3680 H   0  0  0  0  0  0  0  0  0  0  0  0
   30.7900   38.8800   27.9950 H   0  0  0  0  0  0  0  0  0  0  0  0
   30.4210   37.2120   27.3120 H   0  0  0  0  0  0  0  0  0  0  0  0
   34.1500   35.0600   23.8370 C   0  0  0  0  0  0  0  0  0  0  0  0
   34.8860   34.2110   23.8020 H   0  0  0  0  0  0  0  0  0  0  0  0
   34.4370   35.7380   24.6890 H   0  0  0  0  0  0  0  0  0  0  0  0
   32.7180   34.5360   24.0850 C   0  0  0  0  0  0  0  0  0  0  0  0
   32.4500   34.8090   25.1390 H   0  0  0  0  0  0  0  0  0  0  0  0
   31.9960   35.0720   23.4160 H   0  0  0  0  0  0  0  0  0  0  0  0
   32.5910   33.0220   23.8690 C   0  0  0  0  0  0  0  0  0  0  0  0
   33.6010   32.5470   23.9910 H   0  0  0  0  0  0  0  0  0  0  0  0
   32.2840   32.8490   22.8020 H   0  0  0  0  0  0  0  0  0  0  0  0
   31.4600   32.2200   24.9530 S   0  0  0  0  0  0  0  0  0  0  0  0
   31.8200   32.4160   26.3760 O   0  0  0  0  0  0  0  0  0  0  0  0
   31.4210   30.7720   24.6200 O   0  0  0  0  0  0  0  0  0  0  0  0
   29.8970   32.9100   24.6280 C   0  0  0  0  0  0  0  0  0  0  0  0
   29.6280   32.8570   23.5400 H   0  0  0  0  0  0  0  0  0  0  0  0
   29.0980   32.3850   25.2030 H   0  0  0  0  0  0  0  0  0  0  0  0
   29.8360   34.0000   24.8970 H   0  0  0  0  0  0  0  0  0  0  0  0
  1  3  2  0  0  0  0
  1  7  1  0  0  0  0
  1 21  1  0  0  0  0
  2 12  1  0  0  0  0
  2 17  2  0  0  0  0
  2 18  1  0  0  0  0
  3 13  1  0  0  0  0
  3 14  1  0  0  0  0
  4 16  2  0  0  0  0
  4 19  1  0  0  0  0
  4 20  1  0  0  0  0
  5  6  1  0  0  0  0
  5 10  1  0  0  0  0
  5 11  2  0  0  0  0
  6 12  2  0  0  0  0
  6 22  1  0  0  0  0
  7  8  2  0  0  0  0
  7 27  1  0  0  0  0
  8  9  1  0  0  0  0
  8 23  1  0  0  0  0
  9 13  2  0  0  0  0
  9 24  1  0  0  0  0
 10 18  1  0  0  0  0
 10 19  2  0  0  0  0
 11 16  1  0  0  0  0
 11 25  1  0  0  0  0
 12 15  1  0  0  0  0
 13 15  1  0  0  0  0
 18 43  1  0  0  0  0
 20 26  1  0  0  0  0
 20 30  1  0  0  0  0
 28 29  1  0  0  0  0
 28 33  1  0  0  0  0
 28 34  1  0  0  0  0
 28 35  1  0  0  0  0
 29 30  1  0  0  0  0
 29 36  1  0  0  0  0
 29 37  1  0  0  0  0
 30 31  1  0  0  0  0
 30 38  1  0  0  0  0
 31 32  1  0  0  0  0
 31 39  1  0  0  0  0
 31 40  1  0  0  0  0
 32 33  1  0  0  0  0
 32 41  1  0  0  0  0
 32 42  1  0  0  0  0
 43 44  1  0  0  0  0
 43 45  1  0  0  0  0
 43 46  1  0  0  0  0
 46 47  1  0  0  0  0
 46 48  1  0  0  0  0
 46 49  1  0  0  0  0
 49 50  1  0  0  0  0
 49 51  1  0  0  0  0
 49 52  1  0  0  0  0
 52 53  2  0  0  0  0
 52 54  2  0  0  0  0
 52 55  1  0  0  0  0
 55 56  1  0  0  0  0
 55 57  1  0  0  0  0
 55 58  1  0  0  0  0
M  END
$$$$
