20670
                    3D
 Schrodinger Suite 2022-3.
 45 47  0  0  1  0  0  0  0  0999 V2000
   43.7250   13.9180   16.5740 S   0  0  0  0  0  0  0  0  0  0  0  0
   43.5110   15.2990   15.5160 C   0  0  0  0  0  0  0  0  0  0  0  0
   42.5400   15.0070   14.5930 C   0  0  0  0  0  0  0  0  0  0  0  0
   41.9960   13.6730   14.7340 C   0  0  0  0  0  0  0  0  0  0  0  0
   42.4990   12.9570   15.7880 C   0  0  0  0  0  0  0  0  0  0  0  0
   44.3440   16.5600   15.7460 C   0  0  0  0  0  0  0  0  0  0  0  0
   45.1480   16.4920   16.7040 O   0  0  0  0  0  0  0  0  0  0  0  0
   44.1910   17.5360   15.0100 O   0  5  0  0  0  0  0  0  0  0  0  0
   42.1300   11.6210   16.2180 C   0  0  0  0  0  0  0  0  0  0  0  0
   40.7980   11.2130   16.0650 C   0  0  0  0  0  0  0  0  0  0  0  0
   40.4240    9.8610   16.2310 C   0  0  0  0  0  0  0  0  0  0  0  0
   41.3650    8.9460   16.7260 C   0  0  0  0  0  0  0  0  0  0  0  0
   42.6660    9.3910   16.9990 C   0  0  0  0  0  0  0  0  0  0  0  0
   43.0680   10.6960   16.7250 C   0  0  0  0  0  0  0  0  0  0  0  0
   40.7430   12.9700   13.4820 Br  0  0  0  0  0  0  0  0  0  0  0  0
   42.2060   15.8470   13.5790 O   0  0  0  0  0  0  0  0  0  0  0  0
   40.8160   16.3070   13.6150 C   0  0  0  0  0  0  0  0  0  0  0  0
   40.9210   17.6700   12.8650 C   0  0  0  0  0  0  0  0  0  0  0  0
   39.8170   18.1890   12.5820 O   0  5  0  0  0  0  0  0  0  0  0  0
   42.0420   18.1140   12.6030 O   0  0  0  0  0  0  0  0  0  0  0  0
   39.0530    9.5410   15.9430 N   0  0  0  0  0  0  0  0  0  0  0  0
   38.7160    8.1570   15.4820 C   0  0  0  0  0  0  0  0  0  0  0  0
   37.1710    8.0300   15.4860 C   0  0  0  0  0  0  0  0  0  0  0  0
   36.7320    6.6510   14.9700 C   0  0  0  0  0  0  0  0  0  0  0  0
   37.2990    6.3520   13.5720 C   0  0  0  0  0  0  0  0  0  0  0  0
   38.8290    6.4980   13.5470 C   0  0  0  0  0  0  0  0  0  0  0  0
   39.2790    7.8700   14.0660 C   0  0  0  0  0  0  0  0  0  0  0  0
   40.0200   11.9340   15.8050 H   0  0  0  0  0  0  0  0  0  0  0  0
   41.1130    7.9030   16.8990 H   0  0  0  0  0  0  0  0  0  0  0  0
   43.3800    8.6770   17.4160 H   0  0  0  0  0  0  0  0  0  0  0  0
   44.1070   10.9780   16.8970 H   0  0  0  0  0  0  0  0  0  0  0  0
   40.4510   16.4260   14.6550 H   0  0  0  0  0  0  0  0  0  0  0  0
   40.1880   15.5830   13.0590 H   0  0  0  0  0  0  0  0  0  0  0  0
   38.6420   10.2210   15.2620 H   0  0  0  0  0  0  0  0  0  0  0  0
   39.1370    7.4120   16.2050 H   0  0  0  0  0  0  0  0  0  0  0  0
   36.7210    8.8190   14.8400 H   0  0  0  0  0  0  0  0  0  0  0  0
   36.7920    8.1610   16.5270 H   0  0  0  0  0  0  0  0  0  0  0  0
   35.6170    6.6110   14.9300 H   0  0  0  0  0  0  0  0  0  0  0  0
   37.0760    5.8600   15.6810 H   0  0  0  0  0  0  0  0  0  0  0  0
   39.1960    6.3600   12.5040 H   0  0  0  0  0  0  0  0  0  0  0  0
   39.2850    5.6980   14.1790 H   0  0  0  0  0  0  0  0  0  0  0  0
   40.3920    7.8850   14.1080 H   0  0  0  0  0  0  0  0  0  0  0  0
   38.9300    8.6590   13.3630 H   0  0  0  0  0  0  0  0  0  0  0  0
   37.0240    5.3100   13.2820 H   0  0  0  0  0  0  0  0  0  0  0  0
   36.8450    7.0520   12.8350 H   0  0  0  0  0  0  0  0  0  0  0  0
  1  2  1  0  0  0  0
  1  5  1  0  0  0  0
  2  3  2  0  0  0  0
  2  6  1  0  0  0  0
  3  4  1  0  0  0  0
  3 16  1  0  0  0  0
  4  5  2  0  0  0  0
  4 15  1  0  0  0  0
  5  9  1  0  0  0  0
  6  7  2  0  0  0  0
  6  8  1  0  0  0  0
  9 10  1  0  0  0  0
  9 14  2  0  0  0  0
 10 11  2  0  0  0  0
 10 28  1  0  0  0  0
 11 12  1  0  0  0  0
 11 21  1  0  0  0  0
 12 13  2  0  0  0  0
 12 29  1  0  0  0  0
 13 14  1  0  0  0  0
 13 30  1  0  0  0  0
 14 31  1  0  0  0  0
 16 17  1  0  0  0  0
 17 18  1  0  0  0  0
 17 32  1  0  0  0  0
 17 33  1  0  0  0  0
 18 19  1  0  0  0  0
 18 20  2  0  0  0  0
 21 22  1  0  0  0  0
 21 34  1  0  0  0  0
 22 23  1  0  0  0  0
 22 27  1  0  0  0  0
 22 35  1  0  0  0  0
 23 24  1  0  0  0  0
 23 36  1  0  0  0  0
 23 37  1  0  0  0  0
 24 25  1  0  0  0  0
 24 38  1  0  0  0  0
 24 39  1  0  0  0  0
 25 26  1  0  0  0  0
 25 44  1  0  0  0  0
 25 45  1  0  0  0  0
 26 27  1  0  0  0  0
 26 40  1  0  0  0  0
 26 41  1  0  0  0  0
 27 42  1  0  0  0  0
 27 43  1  0  0  0  0
M  CHG  2   8  -1  19  -1
M  END
$$$$
