p38a_2p
 OpenBabel02232411163D
Structure written by MMmdl.
 58 61  0  0  0  0  0  0  0  0999 V2000
   38.2990   36.5430   17.1770 C   0  0  0  0  0  0  0  0  0  0  0  0
   34.2880   35.1180   21.1450 C   0  0  0  0  0  0  0  0  0  0  0  0
   37.5350   36.0880   18.2490 C   0  0  0  0  0  0  0  0  0  0  0  0
   33.7700   39.1840   23.7030 C   0  0  0  0  0  0  0  0  0  0  0  0
   34.5500   37.9820   21.3510 C   0  0  0  0  0  0  0  0  0  0  0  0
   35.0740   37.3070   20.1940 C   0  0  0  0  0  0  0  0  0  0  0  0
   37.6320   36.6890   15.9540 C   0  0  0  0  0  0  0  0  0  0  0  0
   36.2810   36.3810   15.7710 C   0  0  0  0  0  0  0  0  0  0  0  0
   35.5390   35.9110   16.8600 C   0  0  0  0  0  0  0  0  0  0  0  0
   33.9320   37.2350   22.3950 C   0  0  0  0  0  0  0  0  0  0  0  0
   34.6270   39.3880   21.5310 C   0  0  0  0  0  0  0  0  0  0  0  0
   34.9880   35.9590   20.1330 C   0  0  0  0  0  0  0  0  0  0  0  0
   36.1740   35.7530   18.0950 C   0  0  0  0  0  0  0  0  0  0  0  0
   38.0840   35.9670   19.4500 F   0  0  0  0  0  0  0  0  0  0  0  0
   35.4890   35.1200   19.1430 O   0  0  0  0  0  0  0  0  0  0  0  0
   34.2540   40.0030   22.6650 N   0  0  0  0  0  0  0  0  0  0  0  0
   34.1880   33.9110   21.1060 O   0  0  0  0  0  0  0  0  0  0  0  0
   33.6910   35.8570   22.2280 N   0  0  0  0  0  0  0  0  0  0  0  0
   33.5720   37.8240   23.5800 N   0  0  0  0  0  0  0  0  0  0  0  0
   33.4130   39.8070   24.8850 N   0  0  0  0  0  0  0  0  0  0  0  0
   39.3530   36.8110   17.2950 H   0  0  0  0  0  0  0  0  0  0  0  0
   35.5390   37.9130   19.4130 H   0  0  0  0  0  0  0  0  0  0  0  0
   35.7950   36.5150   14.8020 H   0  0  0  0  0  0  0  0  0  0  0  0
   34.4740   35.6890   16.7390 H   0  0  0  0  0  0  0  0  0  0  0  0
   35.0090   40.0230   20.7160 H   0  0  0  0  0  0  0  0  0  0  0  0
   33.6190   40.8220   24.9910 H   0  0  0  0  0  0  0  0  0  0  0  0
   38.3120   37.1830   14.9230 F   0  0  0  0  0  0  0  0  0  0  0  0
   32.3080   39.1450   28.4770 C   0  0  0  0  0  0  0  0  0  0  0  0
   32.2730   39.7300   27.0600 C   0  0  0  0  0  0  0  0  0  0  0  0
   33.3530   39.0630   26.1810 C   0  0  0  0  0  0  0  0  0  0  0  0
   34.7350   39.1220   26.8750 C   0  0  0  0  0  0  0  0  0  0  0  0
   34.6400   38.5850   28.3080 C   0  0  0  0  0  0  0  0  0  0  0  0
   33.6220   39.2740   29.0690 O   0  0  0  0  0  0  0  0  0  0  0  0
   32.0140   38.0700   28.4720 H   0  0  0  0  0  0  0  0  0  0  0  0
   31.6740   39.7370   29.1760 H   0  0  0  0  0  0  0  0  0  0  0  0
   32.4540   40.8290   27.1080 H   0  0  0  0  0  0  0  0  0  0  0  0
   31.2690   39.5520   26.6060 H   0  0  0  0  0  0  0  0  0  0  0  0
   33.0660   37.9930   25.9890 H   0  0  0  0  0  0  0  0  0  0  0  0
   35.4690   38.5090   26.3020 H   0  0  0  0  0  0  0  0  0  0  0  0
   35.0940   40.1800   26.8970 H   0  0  0  0  0  0  0  0  0  0  0  0
   34.4130   37.4930   28.3100 H   0  0  0  0  0  0  0  0  0  0  0  0
   35.5650   38.8110   28.8860 H   0  0  0  0  0  0  0  0  0  0  0  0
   32.6780   35.1810   23.1010 C   0  0  0  0  0  0  0  0  0  0  0  0
   31.8620   35.9230   23.3340 H   0  0  0  0  0  0  0  0  0  0  0  0
   32.2290   34.3310   22.5180 H   0  0  0  0  0  0  0  0  0  0  0  0
   33.2590   34.6490   24.4280 C   0  0  0  0  0  0  0  0  0  0  0  0
   34.0580   33.8970   24.2200 H   0  0  0  0  0  0  0  0  0  0  0  0
   33.7000   35.5050   25.0010 H   0  0  0  0  0  0  0  0  0  0  0  0
   32.1110   34.0230   25.2300 C   0  0  0  0  0  0  0  0  0  0  0  0
   31.6130   33.2310   24.6080 H   0  0  0  0  0  0  0  0  0  0  0  0
   31.3230   34.8130   25.3960 H   0  0  0  0  0  0  0  0  0  0  0  0
   32.5860   33.3480   26.7810 S   0  0  0  0  0  0  0  0  0  0  0  0
   33.6910   32.3790   26.5990 O   0  0  0  0  0  0  0  0  0  0  0  0
   31.4160   32.6820   27.4140 O   0  0  0  0  0  0  0  0  0  0  0  0
   33.1120   34.7010   27.7360 C   0  0  0  0  0  0  0  0  0  0  0  0
   32.4760   35.6080   27.5630 H   0  0  0  0  0  0  0  0  0  0  0  0
   33.0660   34.4940   28.8380 H   0  0  0  0  0  0  0  0  0  0  0  0
   34.1720   34.9970   27.5230 H   0  0  0  0  0  0  0  0  0  0  0  0
  1  3  2  0  0  0  0
  1  7  1  0  0  0  0
  1 21  1  0  0  0  0
  2 12  1  0  0  0  0
  2 17  2  0  0  0  0
  2 18  1  0  0  0  0
  3 13  1  0  0  0  0
  3 14  1  0  0  0  0
  4 16  2  0  0  0  0
  4 19  1  0  0  0  0
  4 20  1  0  0  0  0
  5  6  1  0  0  0  0
  5 10  1  0  0  0  0
  5 11  2  0  0  0  0
  6 12  2  0  0  0  0
  6 22  1  0  0  0  0
  7  8  2  0  0  0  0
  7 27  1  0  0  0  0
  8  9  1  0  0  0  0
  8 23  1  0  0  0  0
  9 13  2  0  0  0  0
  9 24  1  0  0  0  0
 10 18  1  0  0  0  0
 10 19  2  0  0  0  0
 11 16  1  0  0  0  0
 11 25  1  0  0  0  0
 12 15  1  0  0  0  0
 13 15  1  0  0  0  0
 18 43  1  0  0  0  0
 20 26  1  0  0  0  0
 20 30  1  0  0  0  0
 28 29  1  0  0  0  0
 28 33  1  0  0  0  0
 28 34  1  0  0  0  0
 28 35  1  0  0  0  0
 29 30  1  0  0  0  0
 29 36  1  0  0  0  0
 29 37  1  0  0  0  0
 30 31  1  0  0  0  0
 30 38  1  0  0  0  0
 31 32  1  0  0  0  0
 31 39  1  0  0  0  0
 31 40  1  0  0  0  0
 32 33  1  0  0  0  0
 32 41  1  0  0  0  0
 32 42  1  0  0  0  0
 43 44  1  0  0  0  0
 43 45  1  0  0  0  0
 43 46  1  0  0  0  0
 46 47  1  0  0  0  0
 46 48  1  0  0  0  0
 46 49  1  0  0  0  0
 49 50  1  0  0  0  0
 49 51  1  0  0  0  0
 49 52  1  0  0  0  0
 52 53  2  0  0  0  0
 52 54  2  0  0  0  0
 52 55  1  0  0  0  0
 55 56  1  0  0  0  0
 55 57  1  0  0  0  0
 55 58  1  0  0  0  0
M  END
$$$$
