45
 OpenBabel02232411163D
Structure written by MMmdl.
 48 51  0  0  0  0  0  0  0  0999 V2000
    3.7150  -50.0030    5.7730 O   0  0  0  0  0  0  0  0  0  0  0  0
    3.0170  -49.1850    6.4050 C   0  0  0  0  0  0  0  0  0  0  0  0
    3.4240  -48.2370    7.0890 O   0  5  0  0  0  0  0  0  0  0  0  0
    1.4990  -49.4410    6.3330 C   0  0  0  0  0  0  0  0  0  0  0  0
   -0.3910  -50.7190    6.5370 C   0  0  0  0  0  0  0  0  0  0  0  0
   -1.3360  -51.7290    6.7880 C   0  0  0  0  0  0  0  0  0  0  0  0
   -2.6660  -51.4370    6.5270 C   0  0  0  0  0  0  0  0  0  0  0  0
   -3.0580  -50.1720    6.0280 C   0  0  0  0  0  0  0  0  0  0  0  0
   -2.1290  -49.1710    5.7800 C   0  0  0  0  0  0  0  0  0  0  0  0
   -0.7700  -49.4230    6.0300 C   0  0  0  0  0  0  0  0  0  0  0  0
    0.4420  -48.6390    5.9180 C   0  0  0  0  0  0  0  0  0  0  0  0
    0.4660  -47.2350    5.4310 C   0  0  0  0  0  0  0  0  0  0  0  0
    0.3780  -46.2010    6.5680 C   0  0  0  0  0  0  0  0  0  0  0  0
   -0.9420  -46.2530    7.3380 C   0  0  0  0  0  0  0  0  0  0  0  0
   -1.9770  -45.9150    6.3520 O   0  0  0  0  0  0  0  0  0  0  0  0
   -3.2010  -45.4330    6.7480 C   0  0  0  0  0  0  0  0  0  0  0  0
   -5.7340  -44.3170    7.1130 C   0  0  0  0  0  0  0  0  0  0  0  0
   -4.9880  -43.9830    5.9820 C   0  0  0  0  0  0  0  0  0  0  0  0
   -3.7240  -44.5300    5.7970 C   0  0  0  0  0  0  0  0  0  0  0  0
   -1.0430  -52.7030    7.1780 H   0  0  0  0  0  0  0  0  0  0  0  0
   -3.4350  -52.1890    6.7110 H   0  0  0  0  0  0  0  0  0  0  0  0
   -4.1170  -49.9880    5.8440 H   0  0  0  0  0  0  0  0  0  0  0  0
   -2.4590  -48.1970    5.4100 H   0  0  0  0  0  0  0  0  0  0  0  0
   -0.4190  -47.0760    4.7610 H   0  0  0  0  0  0  0  0  0  0  0  0
    1.3950  -47.0310    4.8480 H   0  0  0  0  0  0  0  0  0  0  0  0
    0.4920  -45.1800    6.1390 H   0  0  0  0  0  0  0  0  0  0  0  0
    1.1960  -46.3890    7.3050 H   0  0  0  0  0  0  0  0  0  0  0  0
   -0.9690  -45.4930    8.1450 H   0  0  0  0  0  0  0  0  0  0  0  0
   -1.1700  -47.2850    7.6820 H   0  0  0  0  0  0  0  0  0  0  0  0
   -3.1390  -44.2720    4.9230 H   0  0  0  0  0  0  0  0  0  0  0  0
   -5.2230  -45.2230    8.0560 C   0  0  0  0  0  0  0  0  0  0  0  0
   -3.9540  -45.8110    7.8850 C   0  0  0  0  0  0  0  0  0  0  0  0
   -3.4560  -46.8750    8.8230 C   0  0  0  0  0  0  0  0  0  0  0  0
   -4.2890  -47.0850   10.0920 C   0  0  0  0  0  0  0  0  0  0  0  0
   -5.7820  -46.9320    9.8130 C   0  0  0  0  0  0  0  0  0  0  0  0
   -6.0880  -45.5430    9.2470 C   0  0  0  0  0  0  0  0  0  0  0  0
   -5.3980  -43.2890    5.2470 H   0  0  0  0  0  0  0  0  0  0  0  0
   -6.7220  -43.8850    7.2560 H   0  0  0  0  0  0  0  0  0  0  0  0
   -2.4410  -46.6040    9.1790 H   0  0  0  0  0  0  0  0  0  0  0  0
   -3.4300  -47.8380    8.2490 H   0  0  0  0  0  0  0  0  0  0  0  0
   -4.1070  -48.1070   10.4970 H   0  0  0  0  0  0  0  0  0  0  0  0
   -3.9800  -46.3460   10.8560 H   0  0  0  0  0  0  0  0  0  0  0  0
   -6.0730  -47.7090    9.0690 H   0  0  0  0  0  0  0  0  0  0  0  0
   -6.3560  -47.0860   10.7490 H   0  0  0  0  0  0  0  0  0  0  0  0
   -7.1680  -45.5020    8.9590 H   0  0  0  0  0  0  0  0  0  0  0  0
   -5.9160  -44.7670   10.0330 H   0  0  0  0  0  0  0  0  0  0  0  0
    1.0020  -50.7030    6.7150 N   0  0  0  0  0  0  0  0  0  0  0  0
    1.5320  -51.5010    7.0470 H   0  0  0  0  0  0  0  0  0  0  0  0
  1  2  2  0  0  0  0
  2  3  1  0  0  0  0
  2  4  1  0  0  0  0
  4 11  2  0  0  0  0
  4 47  1  0  0  0  0
  5  6  2  0  0  0  0
  5 10  1  0  0  0  0
  5 47  1  0  0  0  0
  6  7  1  0  0  0  0
  6 20  1  0  0  0  0
  7  8  2  0  0  0  0
  7 21  1  0  0  0  0
  8  9  1  0  0  0  0
  8 22  1  0  0  0  0
  9 10  2  0  0  0  0
  9 23  1  0  0  0  0
 10 11  1  0  0  0  0
 11 12  1  0  0  0  0
 12 24  1  0  0  0  0
 12 25  1  0  0  0  0
 12 13  1  0  0  0  0
 13 14  1  0  0  0  0
 13 26  1  0  0  0  0
 13 27  1  0  0  0  0
 14 15  1  0  0  0  0
 14 28  1  0  0  0  0
 14 29  1  0  0  0  0
 15 16  1  0  0  0  0
 16 19  2  0  0  0  0
 16 32  1  0  0  0  0
 17 18  2  0  0  0  0
 17 31  1  0  0  0  0
 17 38  1  0  0  0  0
 18 19  1  0  0  0  0
 18 37  1  0  0  0  0
 19 30  1  0  0  0  0
 31 32  2  0  0  0  0
 31 36  1  0  0  0  0
 32 33  1  0  0  0  0
 33 34  1  0  0  0  0
 33 39  1  0  0  0  0
 33 40  1  0  0  0  0
 34 35  1  0  0  0  0
 34 41  1  0  0  0  0
 34 42  1  0  0  0  0
 35 36  1  0  0  0  0
 35 43  1  0  0  0  0
 35 44  1  0  0  0  0
 36 45  1  0  0  0  0
 36 46  1  0  0  0  0
 47 48  1  0  0  0  0
M  CHG  1   3  -1
M  END
$$$$
