jmc_30
 OpenBabel02232411173D
Structure written by MMmdl.
 37 39  0  0  1  0  0  0  0  0999 V2000
   -1.5650   21.5390  -27.5900 C   0  0  0  0  0  0  0  0  0  0  0  0
   -2.8400   21.0290  -27.8480 C   0  0  0  0  0  0  0  0  0  0  0  0
   -3.6170   21.5980  -28.8580 C   0  0  0  0  0  0  0  0  0  0  0  0
   -3.1520   22.6800  -29.6230 C   0  0  0  0  0  0  0  0  0  0  0  0
   -1.8760   23.1780  -29.3310 C   0  0  0  0  0  0  0  0  0  0  0  0
   -1.0780   22.6190  -28.3290 C   0  0  0  0  0  0  0  0  0  0  0  0
   -1.2470   24.5120  -30.2020 Cl  0  0  0  0  0  0  0  0  0  0  0  0
   -4.0100   23.1950  -30.7410 C   0  0  0  0  0  0  0  0  0  0  0  0
   -4.4070   22.4810  -31.6360 O   0  0  0  0  0  0  0  0  0  0  0  0
   -4.3290   24.5660  -30.6320 N   0  0  0  0  0  0  0  0  0  0  0  0
   -5.1820   25.3060  -31.4980 C   0  0  0  0  0  0  0  0  0  0  0  0
   -5.8370   24.7420  -32.6050 C   0  0  0  0  0  0  0  0  0  0  0  0
   -6.6970   25.5520  -33.3590 C   0  0  0  0  0  0  0  0  0  0  0  0
   -6.9150   26.8640  -33.0890 N   0  0  0  0  0  0  0  0  0  0  0  0
   -6.2560   27.4060  -32.0070 C   0  0  0  0  0  0  0  0  0  0  0  0
   -5.3840   26.6700  -31.1920 C   0  0  0  0  0  0  0  0  0  0  0  0
   -6.5750   28.7740  -31.7460 N   0  0  0  0  0  0  0  0  0  0  0  0
   -5.7390   29.7050  -31.0900 C   0  0  0  0  0  0  0  0  0  0  0  0
   -4.6150   29.4120  -30.7310 O   0  0  0  0  0  0  0  0  0  0  0  0
   -6.3790   31.0460  -30.8710 C   0  0  1  0  0  0  0  0  0  0  0  0
   -5.9460   31.8870  -29.6770 C   0  0  0  0  0  0  0  0  0  0  0  0
   -5.6110   32.3600  -31.0800 C   0  0  1  0  0  0  0  0  0  0  0  0
   -4.2560   32.3810  -31.5560 C   0  0  0  0  0  0  0  0  0  0  0  0
   -5.1720   20.9520  -29.1780 Cl  0  0  0  0  0  0  0  0  0  0  0  0
   -7.4450   31.1020  -31.1570 H   0  0  0  0  0  0  0  0  0  0  0  0
   -6.2150   33.2080  -31.4760 H   0  0  0  0  0  0  0  0  0  0  0  0
   -0.9450   21.0940  -26.8030 H   0  0  0  0  0  0  0  0  0  0  0  0
   -3.2130   20.1970  -27.2490 H   0  0  0  0  0  0  0  0  0  0  0  0
   -0.0840   23.0200  -28.1090 H   0  0  0  0  0  0  0  0  0  0  0  0
   -3.9340   25.0900  -29.8290 H   0  0  0  0  0  0  0  0  0  0  0  0
   -5.7120   23.6890  -32.8760 H   0  0  0  0  0  0  0  0  0  0  0  0
   -7.2450   25.1360  -34.2200 H   0  0  0  0  0  0  0  0  0  0  0  0
   -4.8810   27.1390  -30.3440 H   0  0  0  0  0  0  0  0  0  0  0  0
   -7.5170   29.0870  -32.0750 H   0  0  0  0  0  0  0  0  0  0  0  0
   -6.7200   32.4450  -29.1250 H   0  0  0  0  0  0  0  0  0  0  0  0
   -5.1450   31.5250  -29.0160 H   0  0  0  0  0  0  0  0  0  0  0  0
   -3.1730   32.4290  -31.9580 N   0  0  0  0  0  0  0  0  0  0  0  0
  1  2  2  0  0  0  0
  1  6  1  0  0  0  0
  1 27  1  0  0  0  0
  2  3  1  0  0  0  0
  2 28  1  0  0  0  0
  3  4  2  0  0  0  0
  3 24  1  0  0  0  0
  4  5  1  0  0  0  0
  4  8  1  0  0  0  0
  5  6  2  0  0  0  0
  5  7  1  0  0  0  0
  6 29  1  0  0  0  0
  8  9  2  0  0  0  0
  8 10  1  0  0  0  0
 10 11  1  0  0  0  0
 10 30  1  0  0  0  0
 11 12  2  0  0  0  0
 11 16  1  0  0  0  0
 12 13  1  0  0  0  0
 12 31  1  0  0  0  0
 13 14  2  0  0  0  0
 13 32  1  0  0  0  0
 14 15  1  0  0  0  0
 15 16  2  0  0  0  0
 15 17  1  0  0  0  0
 16 33  1  0  0  0  0
 17 18  1  0  0  0  0
 17 34  1  0  0  0  0
 18 19  2  0  0  0  0
 18 20  1  0  0  0  0
 20 21  1  0  0  0  0
 20 22  1  0  0  0  0
 20 25  1  6  0  0  0
 21 22  1  0  0  0  0
 21 35  1  0  0  0  0
 21 36  1  0  0  0  0
 22 23  1  0  0  0  0
 22 26  1  6  0  0  0
 23 37  3  0  0  0  0
M  END
$$$$
