CAT-17g
 OpenBabel02232411143D
Structure written by MMmdl.
 42 45  0  0  1  0  0  0  0  0999 V2000
   11.6280   -2.3280    1.2430 C   0  0  0  0  0  0  0  0  0  0  0  0
   12.9780   -2.3060    0.6430 N   0  0  0  0  0  0  0  0  0  0  0  0
   14.1630   -2.3150    1.3710 C   0  0  0  0  0  0  0  0  0  0  0  0
   14.3030   -2.4270    2.7220 N   0  0  0  0  0  0  0  0  0  0  0  0
   15.2600   -2.2470    0.4990 N   0  3  0  0  0  0  0  0  0  0  0  0
   14.8170   -2.5720   -0.9080 C   0  0  1  0  0  0  0  0  0  0  0  0
   15.4130   -1.5590   -1.8610 C   0  0  0  0  0  0  0  0  0  0  0  0
   16.2910   -1.9490   -2.8790 C   0  0  0  0  0  0  0  0  0  0  0  0
   16.7540   -0.9960   -3.7920 C   0  0  0  0  0  0  0  0  0  0  0  0
   16.3640    0.3410   -3.6860 C   0  0  0  0  0  0  0  0  0  0  0  0
   15.5300    0.7480   -2.6320 C   0  0  0  0  0  0  0  0  0  0  0  0
   15.1290    2.1590   -2.4650 C   0  0  0  0  0  0  0  0  0  0  0  0
   14.5550    2.8870   -3.5310 C   0  0  0  0  0  0  0  0  0  0  0  0
   14.0730    4.1470   -3.3830 N   0  0  0  0  0  0  0  0  0  0  0  0
   14.1550    4.7440   -2.1710 C   0  0  0  0  0  0  0  0  0  0  0  0
   14.7730    4.0860   -1.0860 C   0  0  0  0  0  0  0  0  0  0  0  0
   14.8750    4.7090    0.0860 F   0  0  0  0  0  0  0  0  0  0  0  0
   15.2680    2.7900   -1.2170 C   0  0  0  0  0  0  0  0  0  0  0  0
   15.0520   -0.2100   -1.7240 C   0  0  0  0  0  0  0  0  0  0  0  0
   15.0320   -4.0310   -1.2780 C   0  0  0  0  0  0  0  0  0  0  0  0
   16.2490   -4.7920   -0.7820 C   0  0  0  0  0  0  0  0  0  0  0  0
   14.8810   -5.1360   -0.2370 C   0  0  0  0  0  0  0  0  0  0  0  0
   13.2640   -2.3910   -0.8070 C   0  0  0  0  0  0  0  0  0  0  0  0
   12.4040   -2.3310   -1.6230 O   0  0  0  0  0  0  0  0  0  0  0  0
   11.6770   -2.5930    2.3320 H   0  0  0  0  0  0  0  0  0  0  0  0
   11.1540   -1.3160    1.1260 H   0  0  0  0  0  0  0  0  0  0  0  0
   11.0060   -3.1040    0.7200 H   0  0  0  0  0  0  0  0  0  0  0  0
   13.5820   -2.0500    3.3860 H   0  0  0  0  0  0  0  0  0  0  0  0
   16.1880   -2.6030    0.8620 H   0  0  0  0  0  0  0  0  0  0  0  0
   16.6160   -2.9880   -2.9620 H   0  0  0  0  0  0  0  0  0  0  0  0
   17.4320   -1.3030   -4.5960 H   0  0  0  0  0  0  0  0  0  0  0  0
   16.7140    1.0650   -4.4270 H   0  0  0  0  0  0  0  0  0  0  0  0
   14.4660    2.4350   -4.5330 H   0  0  0  0  0  0  0  0  0  0  0  0
   13.7090    5.7470   -2.0670 H   0  0  0  0  0  0  0  0  0  0  0  0
   15.7420    2.2650   -0.3830 H   0  0  0  0  0  0  0  0  0  0  0  0
   14.4010    0.0930   -0.9040 H   0  0  0  0  0  0  0  0  0  0  0  0
   14.6760   -4.2510   -2.3010 H   0  0  0  0  0  0  0  0  0  0  0  0
   16.7620   -5.4630   -1.4690 H   0  0  0  0  0  0  0  0  0  0  0  0
   16.9680   -4.2850   -0.1350 H   0  0  0  0  0  0  0  0  0  0  0  0
   14.6480   -4.8750    0.8020 H   0  0  0  0  0  0  0  0  0  0  0  0
   14.3910   -6.0700   -0.5430 H   0  0  0  0  0  0  0  0  0  0  0  0
   15.2810   -2.3680    3.1290 H   0  0  0  0  0  0  0  0  0  0  0  0
  1  2  1  0  0  0  0
  1 25  1  0  0  0  0
  1 26  1  0  0  0  0
  1 27  1  0  0  0  0
  2  3  1  0  0  0  0
  2 23  1  0  0  0  0
  3  4  1  0  0  0  0
  3  5  2  0  0  0  0
  4 28  1  0  0  0  0
  4 42  1  0  0  0  0
  5  6  1  0  0  0  0
  5 29  1  0  0  0  0
  6  7  1  6  0  0  0
  6 20  1  0  0  0  0
  6 23  1  0  0  0  0
  7  8  2  0  0  0  0
  7 19  1  0  0  0  0
  8  9  1  0  0  0  0
  8 30  1  0  0  0  0
  9 10  2  0  0  0  0
  9 31  1  0  0  0  0
 10 11  1  0  0  0  0
 10 32  1  0  0  0  0
 11 12  1  0  0  0  0
 11 19  2  0  0  0  0
 12 13  2  0  0  0  0
 12 18  1  0  0  0  0
 13 14  1  0  0  0  0
 13 33  1  0  0  0  0
 14 15  2  0  0  0  0
 15 16  1  0  0  0  0
 15 34  1  0  0  0  0
 16 18  2  0  0  0  0
 16 17  1  0  0  0  0
 18 35  1  0  0  0  0
 19 36  1  0  0  0  0
 20 21  1  0  0  0  0
 20 22  1  0  0  0  0
 20 37  1  0  0  0  0
 21 22  1  0  0  0  0
 21 38  1  0  0  0  0
 21 39  1  0  0  0  0
 22 40  1  0  0  0  0
 22 41  1  0  0  0  0
 23 24  2  0  0  0  0
M  CHG  1   5   1
M  END
$$$$
