26
 OpenBabel02232411153D
Structure written by MMmdl.
 49 52  0  0  0  0  0  0  0  0999 V2000
    1.8490   28.8920    6.9030 C   0  0  0  0  0  0  0  0  0  0  0  0
   -1.6530   31.4930    7.9890 C   0  0  0  0  0  0  0  0  0  0  0  0
   -0.2260   25.9910    8.8840 C   0  0  0  0  0  0  0  0  0  0  0  0
   -0.9660   25.2910   10.0320 C   0  0  0  0  0  0  0  0  0  0  0  0
   -0.7590   23.7700    9.8430 C   0  0  0  0  0  0  0  0  0  0  0  0
   -1.3510   22.9720   11.0120 C   0  0  0  0  0  0  0  0  0  0  0  0
   -0.7990   23.4540   12.3630 C   0  0  0  0  0  0  0  0  0  0  0  0
   -1.0420   24.9600   12.5550 C   0  0  0  0  0  0  0  0  0  0  0  0
   -0.4390   25.7710   11.3990 C   0  0  0  0  0  0  0  0  0  0  0  0
    4.1330   25.1960    7.9030 C   0  0  0  0  0  0  0  0  0  0  0  0
    4.8730   24.7160    6.8180 C   0  0  0  0  0  0  0  0  0  0  0  0
    5.1210   25.5190    5.6870 C   0  0  0  0  0  0  0  0  0  0  0  0
    4.5430   26.7800    5.6200 C   0  0  0  0  0  0  0  0  0  0  0  0
    1.1000   27.9290    7.5800 N   0  0  0  0  0  0  0  0  0  0  0  0
   -0.1050   28.2600    8.1050 C   0  0  0  0  0  0  0  0  0  0  0  0
   -0.8110   27.3530    8.8020 O   0  0  0  0  0  0  0  0  0  0  0  0
   -0.6180   29.5730    7.9380 C   0  0  0  0  0  0  0  0  0  0  0  0
   -1.7650   30.2270    8.4000 N   0  0  0  0  0  0  0  0  0  0  0  0
   -0.4340   31.7210    7.2560 N   0  0  0  0  0  0  0  0  0  0  0  0
    0.2270   30.4980    7.1970 C   0  0  0  0  0  0  0  0  0  0  0  0
    1.4310   30.1850    6.6210 N   0  0  0  0  0  0  0  0  0  0  0  0
    3.1450   28.5540    6.5410 N   0  0  0  0  0  0  0  0  0  0  0  0
    3.7280   27.2460    6.6770 C   0  0  0  0  0  0  0  0  0  0  0  0
    3.5690   26.4710    7.8370 C   0  0  0  0  0  0  0  0  0  0  0  0
   -2.3520   32.3000    8.1790 H   0  0  0  0  0  0  0  0  0  0  0  0
    0.8640   26.0650    9.0960 H   0  0  0  0  0  0  0  0  0  0  0  0
   -0.4300   25.5240    7.8990 H   0  0  0  0  0  0  0  0  0  0  0  0
   -2.0580   25.5180    9.9790 H   0  0  0  0  0  0  0  0  0  0  0  0
   -1.2470   23.4450    8.8980 H   0  0  0  0  0  0  0  0  0  0  0  0
    0.3350   23.5490    9.7770 H   0  0  0  0  0  0  0  0  0  0  0  0
   -2.4550   23.0910   11.0150 H   0  0  0  0  0  0  0  0  0  0  0  0
   -1.1050   21.8910   10.8840 H   0  0  0  0  0  0  0  0  0  0  0  0
   -1.2920   22.8900   13.1860 H   0  0  0  0  0  0  0  0  0  0  0  0
    0.2970   23.2530   12.3980 H   0  0  0  0  0  0  0  0  0  0  0  0
   -2.1370   25.1520   12.6280 H   0  0  0  0  0  0  0  0  0  0  0  0
   -0.5660   25.2860   13.5090 H   0  0  0  0  0  0  0  0  0  0  0  0
    0.6720   25.6600   11.4350 H   0  0  0  0  0  0  0  0  0  0  0  0
   -0.6910   26.8480   11.5350 H   0  0  0  0  0  0  0  0  0  0  0  0
    3.9760   24.5960    8.8020 H   0  0  0  0  0  0  0  0  0  0  0  0
    5.7410   25.1500    4.8670 H   0  0  0  0  0  0  0  0  0  0  0  0
    4.7190   27.4070    4.7420 H   0  0  0  0  0  0  0  0  0  0  0  0
   -0.1630   32.5990    6.7880 H   0  0  0  0  0  0  0  0  0  0  0  0
    3.6480   29.1780    5.8700 H   0  0  0  0  0  0  0  0  0  0  0  0
    2.9990   26.8400    8.6920 H   0  0  0  0  0  0  0  0  0  0  0  0
    5.4600   23.4640    6.7520 O   0  0  0  0  0  0  0  0  0  0  0  0
    4.8100   22.4170    7.5200 C   0  0  0  0  0  0  0  0  0  0  0  0
    5.3860   21.5160    7.2100 H   0  0  0  0  0  0  0  0  0  0  0  0
    4.9130   22.6200    8.6080 H   0  0  0  0  0  0  0  0  0  0  0  0
    3.7420   22.3370    7.2200 H   0  0  0  0  0  0  0  0  0  0  0  0
  1 14  2  0  0  0  0
  1 21  1  0  0  0  0
  1 22  1  0  0  0  0
  2 18  2  0  0  0  0
  2 19  1  0  0  0  0
  2 25  1  0  0  0  0
  3  4  1  0  0  0  0
  3 16  1  0  0  0  0
  3 26  1  0  0  0  0
  3 27  1  0  0  0  0
  4  5  1  0  0  0  0
  4  9  1  0  0  0  0
  4 28  1  0  0  0  0
  5  6  1  0  0  0  0
  5 29  1  0  0  0  0
  5 30  1  0  0  0  0
  6  7  1  0  0  0  0
  6 31  1  0  0  0  0
  6 32  1  0  0  0  0
  7  8  1  0  0  0  0
  7 33  1  0  0  0  0
  7 34  1  0  0  0  0
  8  9  1  0  0  0  0
  8 35  1  0  0  0  0
  8 36  1  0  0  0  0
  9 37  1  0  0  0  0
  9 38  1  0  0  0  0
 10 11  2  0  0  0  0
 10 24  1  0  0  0  0
 10 39  1  0  0  0  0
 11 12  1  0  0  0  0
 11 45  1  0  0  0  0
 12 13  2  0  0  0  0
 12 40  1  0  0  0  0
 13 23  1  0  0  0  0
 13 41  1  0  0  0  0
 14 15  1  0  0  0  0
 15 16  1  0  0  0  0
 15 17  2  0  0  0  0
 17 18  1  0  0  0  0
 17 20  1  0  0  0  0
 19 20  1  0  0  0  0
 19 42  1  0  0  0  0
 20 21  2  0  0  0  0
 22 23  1  0  0  0  0
 22 43  1  0  0  0  0
 23 24  2  0  0  0  0
 24 44  1  0  0  0  0
 45 46  1  0  0  0  0
 46 47  1  0  0  0  0
 46 48  1  0  0  0  0
 46 49  1  0  0  0  0
M  END
$$$$
