CAT-13c
 OpenBabel02232411143D
Structure written by MMmdl.
 45 47  0  0  1  0  0  0  0  0999 V2000
   16.5170   -4.6100   -1.1260 C   0  0  0  0  0  0  0  0  0  0  0  0
   15.0160   -4.3120   -1.1280 C   0  0  0  0  0  0  0  0  0  0  0  0
   14.2780   -5.1580   -0.0790 C   0  0  0  0  0  0  0  0  0  0  0  0
   14.7530   -2.7870   -0.9040 C   0  0  2  0  0  0  0  0  0  0  0  0
   15.2820   -1.8120   -1.9400 C   0  0  0  0  0  0  0  0  0  0  0  0
   15.7240   -2.2270   -3.2010 C   0  0  0  0  0  0  0  0  0  0  0  0
   16.1580   -1.2740   -4.1300 C   0  0  0  0  0  0  0  0  0  0  0  0
   16.1180    0.0890   -3.8330 C   0  0  0  0  0  0  0  0  0  0  0  0
   15.6360    0.5220   -2.5850 C   0  0  0  0  0  0  0  0  0  0  0  0
   15.4830    1.9630   -2.2770 C   0  0  0  0  0  0  0  0  0  0  0  0
   15.7530    2.4510   -0.9880 C   0  0  0  0  0  0  0  0  0  0  0  0
   15.4850    3.7830   -0.6590 C   0  0  0  0  0  0  0  0  0  0  0  0
   14.9650    4.6550   -1.6190 C   0  0  0  0  0  0  0  0  0  0  0  0
   14.7600    4.1740   -2.9160 C   0  0  0  0  0  0  0  0  0  0  0  0
   14.1740    5.2540   -4.1180 Cl  0  0  0  0  0  0  0  0  0  0  0  0
   15.0010    2.8430   -3.2610 C   0  0  0  0  0  0  0  0  0  0  0  0
   15.2420   -0.4380   -1.6420 C   0  0  0  0  0  0  0  0  0  0  0  0
   15.2160   -2.3760    0.4770 N   0  3  0  0  0  0  0  0  0  0  0  0
   14.1260   -2.3530    1.3570 C   0  0  0  0  0  0  0  0  0  0  0  0
   14.2770   -2.3940    2.7100 N   0  0  0  0  0  0  0  0  0  0  0  0
   12.9360   -2.3390    0.6360 N   0  0  0  0  0  0  0  0  0  0  0  0
   11.5920   -2.3060    1.2480 C   0  0  0  0  0  0  0  0  0  0  0  0
   13.2100   -2.5620   -0.8030 C   0  0  0  0  0  0  0  0  0  0  0  0
   12.3470   -2.5250   -1.6200 O   0  0  0  0  0  0  0  0  0  0  0  0
   16.9440   -4.5030   -2.1480 H   0  0  0  0  0  0  0  0  0  0  0  0
   17.0760   -3.9250   -0.4540 H   0  0  0  0  0  0  0  0  0  0  0  0
   16.7050   -5.6470   -0.7720 H   0  0  0  0  0  0  0  0  0  0  0  0
   14.5870   -4.5780   -2.1310 H   0  0  0  0  0  0  0  0  0  0  0  0
   14.4720   -6.2410   -0.2700 H   0  0  0  0  0  0  0  0  0  0  0  0
   14.6300   -4.9270    0.9510 H   0  0  0  0  0  0  0  0  0  0  0  0
   13.1760   -5.0160   -0.1300 H   0  0  0  0  0  0  0  0  0  0  0  0
   15.7310   -3.2810   -3.4810 H   0  0  0  0  0  0  0  0  0  0  0  0
   16.5310   -1.5980   -5.1050 H   0  0  0  0  0  0  0  0  0  0  0  0
   16.4650    0.8100   -4.5810 H   0  0  0  0  0  0  0  0  0  0  0  0
   16.1560    1.7820   -0.2260 H   0  0  0  0  0  0  0  0  0  0  0  0
   15.6690    4.1300    0.3610 H   0  0  0  0  0  0  0  0  0  0  0  0
   14.7080    5.6820   -1.3500 H   0  0  0  0  0  0  0  0  0  0  0  0
   14.8010    2.4870   -4.2770 H   0  0  0  0  0  0  0  0  0  0  0  0
   14.8990   -0.1210   -0.6570 H   0  0  0  0  0  0  0  0  0  0  0  0
   16.1370   -2.7280    0.8570 H   0  0  0  0  0  0  0  0  0  0  0  0
   13.5600   -2.0000    3.3660 H   0  0  0  0  0  0  0  0  0  0  0  0
   10.9380   -3.0720    0.7480 H   0  0  0  0  0  0  0  0  0  0  0  0
   11.6440   -2.5490    2.3420 H   0  0  0  0  0  0  0  0  0  0  0  0
   11.1500   -1.2820    1.1150 H   0  0  0  0  0  0  0  0  0  0  0  0
   15.2550   -2.3450    3.1130 H   0  0  0  0  0  0  0  0  0  0  0  0
  1  2  1  0  0  0  0
  1 25  1  0  0  0  0
  1 26  1  0  0  0  0
  1 27  1  0  0  0  0
  2  3  1  0  0  0  0
  2 28  1  0  0  0  0
  3 29  1  0  0  0  0
  3 30  1  0  0  0  0
  3 31  1  0  0  0  0
  4  2  1  6  0  0  0
  4  5  1  0  0  0  0
  4 18  1  0  0  0  0
  4 23  1  0  0  0  0
  5  6  2  0  0  0  0
  5 17  1  0  0  0  0
  6  7  1  0  0  0  0
  6 32  1  0  0  0  0
  7  8  2  0  0  0  0
  7 33  1  0  0  0  0
  8  9  1  0  0  0  0
  8 34  1  0  0  0  0
  9 10  1  0  0  0  0
  9 17  2  0  0  0  0
 10 11  2  0  0  0  0
 10 16  1  0  0  0  0
 11 12  1  0  0  0  0
 11 35  1  0  0  0  0
 12 13  2  0  0  0  0
 12 36  1  0  0  0  0
 13 14  1  0  0  0  0
 13 37  1  0  0  0  0
 14 15  1  0  0  0  0
 14 16  2  0  0  0  0
 16 38  1  0  0  0  0
 17 39  1  0  0  0  0
 18 19  2  0  0  0  0
 18 40  1  0  0  0  0
 19 20  1  0  0  0  0
 19 21  1  0  0  0  0
 20 41  1  0  0  0  0
 20 45  1  0  0  0  0
 21 22  1  0  0  0  0
 21 23  1  0  0  0  0
 22 42  1  0  0  0  0
 22 43  1  0  0  0  0
 22 44  1  0  0  0  0
 23 24  2  0  0  0  0
M  CHG  1  18   1
M  END
$$$$
