p38a_2aa
 OpenBabel02232411163D
Structure written by MMmdl.
 43 45  0  0  0  0  0  0  0  0999 V2000
   36.4170   36.2130   15.5950 C   0  0  0  0  0  0  0  0  0  0  0  0
   34.6200   34.8920   20.9860 C   0  0  0  0  0  0  0  0  0  0  0  0
   35.8290   35.6610   16.7280 C   0  0  0  0  0  0  0  0  0  0  0  0
   33.9930   38.8410   23.7230 C   0  0  0  0  0  0  0  0  0  0  0  0
   32.8510   38.8340   26.0260 C   0  0  0  0  0  0  0  0  0  0  0  0
   34.8910   37.7420   21.3490 C   0  0  0  0  0  0  0  0  0  0  0  0
   35.4330   37.1260   20.1680 C   0  0  0  0  0  0  0  0  0  0  0  0
   37.7080   36.7340   15.7520 C   0  0  0  0  0  0  0  0  0  0  0  0
   38.4080   36.7080   16.9610 C   0  0  0  0  0  0  0  0  0  0  0  0
   37.7800   36.1850   18.0970 C   0  0  0  0  0  0  0  0  0  0  0  0
   34.3050   36.9340   22.3640 C   0  0  0  0  0  0  0  0  0  0  0  0
   34.9270   39.1430   21.5890 C   0  0  0  0  0  0  0  0  0  0  0  0
   35.3290   35.7840   20.0290 C   0  0  0  0  0  0  0  0  0  0  0  0
   36.4910   35.6590   17.9720 C   0  0  0  0  0  0  0  0  0  0  0  0
   33.5840   34.7260   23.2800 C   0  0  0  0  0  0  0  0  0  0  0  0
   34.6240   35.1110   16.6650 F   0  0  0  0  0  0  0  0  0  0  0  0
   35.8370   34.9830   19.0100 O   0  0  0  0  0  0  0  0  0  0  0  0
   34.5000   39.7050   22.7290 N   0  0  0  0  0  0  0  0  0  0  0  0
   34.4120   33.7110   20.8220 O   0  0  0  0  0  0  0  0  0  0  0  0
   34.1660   35.5490   22.1850 N   0  0  0  0  0  0  0  0  0  0  0  0
   33.8390   37.4820   23.5340 N   0  0  0  0  0  0  0  0  0  0  0  0
   33.6950   39.4110   24.9390 N   0  0  0  0  0  0  0  0  0  0  0  0
   35.8920   36.2560   14.6400 H   0  0  0  0  0  0  0  0  0  0  0  0
   31.8970   39.9530   26.5360 C   0  0  0  0  0  0  0  0  0  0  0  0
   35.9240   37.7660   19.4320 H   0  0  0  0  0  0  0  0  0  0  0  0
   39.4170   37.1170   17.0410 H   0  0  0  0  0  0  0  0  0  0  0  0
   38.2930   36.2170   19.0610 H   0  0  0  0  0  0  0  0  0  0  0  0
   35.3100   39.8200   20.8080 H   0  0  0  0  0  0  0  0  0  0  0  0
   34.1060   34.9510   24.2500 H   0  0  0  0  0  0  0  0  0  0  0  0
   32.4920   34.9570   23.3980 H   0  0  0  0  0  0  0  0  0  0  0  0
   33.7070   33.6340   23.0530 H   0  0  0  0  0  0  0  0  0  0  0  0
   33.7990   40.4480   25.0240 H   0  0  0  0  0  0  0  0  0  0  0  0
   38.2760   37.3130   14.6970 F   0  0  0  0  0  0  0  0  0  0  0  0
   32.0130   37.5670   25.7130 C   0  0  0  0  0  0  0  0  0  0  0  0
   31.1390   37.7560   24.5860 O   0  0  0  0  0  0  0  0  0  0  0  0
   31.6970   37.6430   23.7820 H   0  0  0  0  0  0  0  0  0  0  0  0
   32.6780   36.6870   25.5460 H   0  0  0  0  0  0  0  0  0  0  0  0
   31.3130   37.3640   26.5610 H   0  0  0  0  0  0  0  0  0  0  0  0
   31.1010   40.4770   25.4710 O   0  0  0  0  0  0  0  0  0  0  0  0
   31.2340   39.5440   27.3350 H   0  0  0  0  0  0  0  0  0  0  0  0
   32.4690   40.8280   26.9210 H   0  0  0  0  0  0  0  0  0  0  0  0
   30.7110   39.6970   24.9790 H   0  0  0  0  0  0  0  0  0  0  0  0
   33.5600   38.5590   26.8670 H   0  0  0  0  0  0  0  0  0  0  0  0
  1  3  2  0  0  0  0
  1  8  1  0  0  0  0
  1 23  1  0  0  0  0
  2 13  1  0  0  0  0
  2 19  2  0  0  0  0
  2 20  1  0  0  0  0
  3 14  1  0  0  0  0
  3 16  1  0  0  0  0
  4 18  2  0  0  0  0
  4 21  1  0  0  0  0
  4 22  1  0  0  0  0
  5 22  1  0  0  0  0
  5 24  1  0  0  0  0
  5 34  1  0  0  0  0
  5 43  1  0  0  0  0
  6  7  1  0  0  0  0
  6 11  1  0  0  0  0
  6 12  2  0  0  0  0
  7 13  2  0  0  0  0
  7 25  1  0  0  0  0
  8  9  2  0  0  0  0
  8 33  1  0  0  0  0
  9 10  1  0  0  0  0
  9 26  1  0  0  0  0
 10 14  2  0  0  0  0
 10 27  1  0  0  0  0
 11 20  1  0  0  0  0
 11 21  2  0  0  0  0
 12 18  1  0  0  0  0
 12 28  1  0  0  0  0
 13 17  1  0  0  0  0
 14 17  1  0  0  0  0
 15 20  1  0  0  0  0
 15 29  1  0  0  0  0
 15 30  1  0  0  0  0
 15 31  1  0  0  0  0
 22 32  1  0  0  0  0
 24 39  1  0  0  0  0
 24 40  1  0  0  0  0
 24 41  1  0  0  0  0
 34 35  1  0  0  0  0
 34 37  1  0  0  0  0
 34 38  1  0  0  0  0
 35 36  1  0  0  0  0
 39 42  1  0  0  0  0
M  END
$$$$
