18639-1
 OpenBabel02232411163D
Structure written by MMmdl.
 48 49  0  0  0  0  0  0  0  0999 V2000
   23.2150   10.7680   29.0650 C   0  0  0  0  0  0  0  0  0  0  0  0
   23.4980   11.0160   30.5320 C   0  0  0  0  0  0  0  0  0  0  0  0
   22.2350   11.1320   31.2930 O   0  0  0  0  0  0  0  0  0  0  0  0
   21.5710   10.0060   31.6380 C   0  0  0  0  0  0  0  0  0  0  0  0
   22.0340    8.8070   31.2140 N   0  0  0  0  0  0  0  0  0  0  0  0
   21.2830    7.6850   31.5240 C   0  0  0  0  0  0  0  0  0  0  0  0
   20.1170    7.7420   32.2780 C   0  0  0  0  0  0  0  0  0  0  0  0
   19.6530    9.0020   32.7440 C   0  0  0  0  0  0  0  0  0  0  0  0
   18.5010    9.0620   33.4850 N   0  0  0  0  0  0  0  0  0  0  0  0
   20.3890   10.1870   32.4160 C   0  0  0  0  0  0  0  0  0  0  0  0
   20.0000   11.4930   32.7830 C   0  0  0  0  0  0  0  0  0  0  0  0
   19.7310   12.5900   33.0450 N   0  0  0  0  0  0  0  0  0  0  0  0
   21.8550    6.5160   30.9700 N   0  0  0  0  0  0  0  0  0  0  0  0
   21.2430    5.2510   30.8580 C   0  0  0  0  0  0  0  0  0  0  0  0
   20.1400    5.0120   31.3020 O   0  0  0  0  0  0  0  0  0  0  0  0
   22.0670    4.2480   30.0590 C   0  0  0  0  0  0  0  0  0  0  0  0
   23.4320    3.9740   30.6200 C   0  0  0  0  0  0  0  0  0  0  0  0
   24.5310    4.8320   30.3020 C   0  0  0  0  0  0  0  0  0  0  0  0
   24.1800    5.8790   29.4580 O   0  0  0  0  0  0  0  0  0  0  0  0
   25.1370    6.9640   29.2980 C   0  0  0  0  0  0  0  0  0  0  0  0
   25.8080    4.5900   30.7840 C   0  0  0  0  0  0  0  0  0  0  0  0
   26.0320    3.4770   31.6220 C   0  0  0  0  0  0  0  0  0  0  0  0
   27.3810    3.2220   32.1350 N   0  3  0  0  0  0  0  0  0  0  0  0
   27.5050    2.4440   33.0680 O   0  5  0  0  0  0  0  0  0  0  0  0
   28.3260    3.7930   31.6040 O   0  0  0  0  0  0  0  0  0  0  0  0
   24.9580    2.6130   31.9390 C   0  0  0  0  0  0  0  0  0  0  0  0
   23.6660    2.8690   31.4230 C   0  0  0  0  0  0  0  0  0  0  0  0
   25.3000    1.5770   32.7540 O   0  0  0  0  0  0  0  0  0  0  0  0
   24.3000    0.5410   32.9900 C   0  0  0  0  0  0  0  0  0  0  0  0
   24.1730   10.8290   28.4910 H   0  0  0  0  0  0  0  0  0  0  0  0
   22.5150   11.5280   28.6530 H   0  0  0  0  0  0  0  0  0  0  0  0
   22.7780    9.7540   28.9050 H   0  0  0  0  0  0  0  0  0  0  0  0
   23.9120   12.0370   30.7160 H   0  0  0  0  0  0  0  0  0  0  0  0
   24.1310   10.2170   30.9800 H   0  0  0  0  0  0  0  0  0  0  0  0
   19.5430    6.8400   32.4990 H   0  0  0  0  0  0  0  0  0  0  0  0
   17.9920    8.1970   33.7510 H   0  0  0  0  0  0  0  0  0  0  0  0
   18.1130    9.9530   33.7960 H   0  0  0  0  0  0  0  0  0  0  0  0
   22.7800    6.6600   30.4920 H   0  0  0  0  0  0  0  0  0  0  0  0
   21.4900    3.2870   29.9960 H   0  0  0  0  0  0  0  0  0  0  0  0
   22.1830    4.6640   29.0180 H   0  0  0  0  0  0  0  0  0  0  0  0
   25.4510    7.3590   30.2880 H   0  0  0  0  0  0  0  0  0  0  0  0
   25.9940    6.6070   28.6880 H   0  0  0  0  0  0  0  0  0  0  0  0
   24.5250    7.7130   28.7440 H   0  0  0  0  0  0  0  0  0  0  0  0
   26.6500    5.2400   30.5180 H   0  0  0  0  0  0  0  0  0  0  0  0
   22.8470    2.1840   31.6560 H   0  0  0  0  0  0  0  0  0  0  0  0
   24.8800   -0.1930   33.5990 H   0  0  0  0  0  0  0  0  0  0  0  0
   23.4490    0.9570   33.5700 H   0  0  0  0  0  0  0  0  0  0  0  0
   23.9810    0.0930   32.0240 H   0  0  0  0  0  0  0  0  0  0  0  0
  1  2  1  0  0  0  0
  1 30  1  0  0  0  0
  1 31  1  0  0  0  0
  1 32  1  0  0  0  0
  2  3  1  0  0  0  0
  2 33  1  0  0  0  0
  2 34  1  0  0  0  0
  3  4  1  0  0  0  0
  4 10  2  0  0  0  0
  4  5  1  0  0  0  0
  5  6  2  0  0  0  0
  6  7  1  0  0  0  0
  6 13  1  0  0  0  0
  7  8  2  0  0  0  0
  7 35  1  0  0  0  0
  8  9  1  0  0  0  0
  8 10  1  0  0  0  0
  9 36  1  0  0  0  0
  9 37  1  0  0  0  0
 10 11  1  0  0  0  0
 11 12  3  0  0  0  0
 13 14  1  0  0  0  0
 13 38  1  0  0  0  0
 14 15  2  0  0  0  0
 14 16  1  0  0  0  0
 16 17  1  0  0  0  0
 16 39  1  0  0  0  0
 16 40  1  0  0  0  0
 17 27  2  0  0  0  0
 17 18  1  0  0  0  0
 18 19  1  0  0  0  0
 18 21  2  0  0  0  0
 19 20  1  0  0  0  0
 20 41  1  0  0  0  0
 20 42  1  0  0  0  0
 20 43  1  0  0  0  0
 21 22  1  0  0  0  0
 21 44  1  0  0  0  0
 22 23  1  0  0  0  0
 22 26  2  0  0  0  0
 23 24  1  0  0  0  0
 23 25  2  0  0  0  0
 26 27  1  0  0  0  0
 26 28  1  0  0  0  0
 27 45  1  0  0  0  0
 28 29  1  0  0  0  0
 29 46  1  0  0  0  0
 29 47  1  0  0  0  0
 29 48  1  0  0  0  0
M  CHG  2  23   1  24  -1
M  END
$$$$
