23471
 OpenBabel02232411173D
Structure written by MMmdl.
 35 36  0  0  0  0  0  0  0  0999 V2000
   37.0860    7.7710   15.3450 C   0  0  0  0  0  0  0  0  0  0  0  0
   37.3450    7.9220   16.7580 O   0  0  0  0  0  0  0  0  0  0  0  0
   38.5050    8.5460   17.2270 C   0  0  0  0  0  0  0  0  0  0  0  0
   38.6460    8.4540   18.4320 O   0  0  0  0  0  0  0  0  0  0  0  0
   39.3010    9.2500   16.3380 N   0  0  0  0  0  0  0  0  0  0  0  0
   40.6270    9.7380   16.6750 C   0  0  0  0  0  0  0  0  0  0  0  0
   41.5840    8.8920   17.2450 C   0  0  0  0  0  0  0  0  0  0  0  0
   42.8630    9.4080   17.4850 C   0  0  0  0  0  0  0  0  0  0  0  0
   43.1930   10.7120   17.1210 C   0  0  0  0  0  0  0  0  0  0  0  0
   42.2310   11.5560   16.5230 C   0  0  0  0  0  0  0  0  0  0  0  0
   42.5830   12.8750   16.0440 C   0  0  0  0  0  0  0  0  0  0  0  0
   43.7340   13.8810   16.8890 S   0  0  0  0  0  0  0  0  0  0  0  0
   43.6310   15.1870   15.7470 C   0  0  0  0  0  0  0  0  0  0  0  0
   44.4140   16.4830   15.9660 C   0  0  0  0  0  0  0  0  0  0  0  0
   45.5400   16.3320   16.4880 O   0  0  0  0  0  0  0  0  0  0  0  0
   43.9210   17.5480   15.6030 O   0  5  0  0  0  0  0  0  0  0  0  0
   42.7940   14.8280   14.7170 C   0  0  0  0  0  0  0  0  0  0  0  0
   42.7120   15.5750   13.5880 O   0  0  0  0  0  0  0  0  0  0  0  0
   41.3650   16.0220   13.2240 C   0  0  0  0  0  0  0  0  0  0  0  0
   41.5930   17.5240   12.8480 C   0  0  0  0  0  0  0  0  0  0  0  0
   40.5940   18.2660   12.9450 O   0  0  0  0  0  0  0  0  0  0  0  0
   42.7160   17.8580   12.4490 O   0  5  0  0  0  0  0  0  0  0  0  0
   42.1810   13.5340   14.9100 C   0  0  0  0  0  0  0  0  0  0  0  0
   40.9200   12.8120   13.6720 Br  0  0  0  0  0  0  0  0  0  0  0  0
   40.9210   11.0690   16.3550 C   0  0  0  0  0  0  0  0  0  0  0  0
   36.1950    7.0990   15.3330 H   0  0  0  0  0  0  0  0  0  0  0  0
   36.8370    8.7560   14.8910 H   0  0  0  0  0  0  0  0  0  0  0  0
   37.9430    7.2750   14.8370 H   0  0  0  0  0  0  0  0  0  0  0  0
   39.0270    9.3740   15.3510 H   0  0  0  0  0  0  0  0  0  0  0  0
   41.3550    7.8550   17.4810 H   0  0  0  0  0  0  0  0  0  0  0  0
   43.6110    8.7610   17.9490 H   0  0  0  0  0  0  0  0  0  0  0  0
   44.2160   11.0580   17.2950 H   0  0  0  0  0  0  0  0  0  0  0  0
   41.0690   15.4130   12.3450 H   0  0  0  0  0  0  0  0  0  0  0  0
   40.6390   15.8860   14.0530 H   0  0  0  0  0  0  0  0  0  0  0  0
   40.1200   11.7050   15.9670 H   0  0  0  0  0  0  0  0  0  0  0  0
  1  2  1  0  0  0  0
  1 26  1  0  0  0  0
  1 27  1  0  0  0  0
  1 28  1  0  0  0  0
  2  3  1  0  0  0  0
  3  4  2  0  0  0  0
  3  5  1  0  0  0  0
  5  6  1  0  0  0  0
  5 29  1  0  0  0  0
  6 25  2  0  0  0  0
  6  7  1  0  0  0  0
  7  8  2  0  0  0  0
  7 30  1  0  0  0  0
  8  9  1  0  0  0  0
  8 31  1  0  0  0  0
  9 10  2  0  0  0  0
  9 32  1  0  0  0  0
 10 11  1  0  0  0  0
 10 25  1  0  0  0  0
 11 23  2  0  0  0  0
 11 12  1  0  0  0  0
 12 13  1  0  0  0  0
 13 14  1  0  0  0  0
 13 17  2  0  0  0  0
 14 15  2  0  0  0  0
 14 16  1  0  0  0  0
 17 18  1  0  0  0  0
 17 23  1  0  0  0  0
 18 19  1  0  0  0  0
 19 20  1  0  0  0  0
 19 33  1  0  0  0  0
 19 34  1  0  0  0  0
 20 21  2  0  0  0  0
 20 22  1  0  0  0  0
 23 24  1  0  0  0  0
 25 35  1  0  0  0  0
M  CHG  2  16  -1  22  -1
M  END
$$$$
