p38a_2ee
 OpenBabel02232411163D
Structure written by MMmdl.
 52 55  0  0  0  0  0  0  0  0999 V2000
   36.3620   36.0560   15.7900 C   0  0  0  0  0  0  0  0  0  0  0  0
   34.5940   35.0380   21.3600 C   0  0  0  0  0  0  0  0  0  0  0  0
   35.6820   35.5900   16.9100 C   0  0  0  0  0  0  0  0  0  0  0  0
   34.1130   39.1290   23.8940 C   0  0  0  0  0  0  0  0  0  0  0  0
   34.7630   37.9080   21.5050 C   0  0  0  0  0  0  0  0  0  0  0  0
   35.1750   37.2390   20.3000 C   0  0  0  0  0  0  0  0  0  0  0  0
   37.6560   36.5470   16.0040 C   0  0  0  0  0  0  0  0  0  0  0  0
   38.2820   36.5510   17.2540 C   0  0  0  0  0  0  0  0  0  0  0  0
   37.5630   36.1120   18.3720 C   0  0  0  0  0  0  0  0  0  0  0  0
   34.4060   37.1470   22.6580 C   0  0  0  0  0  0  0  0  0  0  0  0
   34.7100   39.3230   21.6320 C   0  0  0  0  0  0  0  0  0  0  0  0
   35.1280   35.8870   20.2600 C   0  0  0  0  0  0  0  0  0  0  0  0
   36.2620   35.6350   18.1950 C   0  0  0  0  0  0  0  0  0  0  0  0
   33.9820   34.9770   23.8110 C   0  0  0  0  0  0  0  0  0  0  0  0
   34.4650   35.0770   16.7950 F   0  0  0  0  0  0  0  0  0  0  0  0
   35.5030   35.0460   19.2140 O   0  0  0  0  0  0  0  0  0  0  0  0
   34.3950   39.9450   22.7790 N   0  0  0  0  0  0  0  0  0  0  0  0
   34.3700   33.8500   21.2840 O   0  0  0  0  0  0  0  0  0  0  0  0
   34.3410   35.7450   22.5860 N   0  0  0  0  0  0  0  0  0  0  0  0
   34.1070   37.7480   23.8540 N   0  0  0  0  0  0  0  0  0  0  0  0
   33.7670   39.7560   25.0690 N   0  0  0  0  0  0  0  0  0  0  0  0
   35.9030   36.0620   14.7980 H   0  0  0  0  0  0  0  0  0  0  0  0
   35.5280   37.8500   19.4670 H   0  0  0  0  0  0  0  0  0  0  0  0
   39.3050   36.9200   17.3670 H   0  0  0  0  0  0  0  0  0  0  0  0
   38.0160   36.1690   19.3640 H   0  0  0  0  0  0  0  0  0  0  0  0
   34.9300   39.9600   20.7590 H   0  0  0  0  0  0  0  0  0  0  0  0
   34.7020   35.2220   24.6390 H   0  0  0  0  0  0  0  0  0  0  0  0
   32.9470   35.2520   24.1530 H   0  0  0  0  0  0  0  0  0  0  0  0
   34.0210   33.8760   23.6050 H   0  0  0  0  0  0  0  0  0  0  0  0
   33.8230   40.7900   25.1380 H   0  0  0  0  0  0  0  0  0  0  0  0
   38.3050   37.0700   14.9650 F   0  0  0  0  0  0  0  0  0  0  0  0
   32.4570   38.9260   28.5710 C   0  0  0  0  0  0  0  0  0  0  0  0
   32.5220   39.6260   27.1980 C   0  0  0  0  0  0  0  0  0  0  0  0
   33.6820   39.0300   26.3710 C   0  0  0  0  0  0  0  0  0  0  0  0
   35.0180   39.1580   27.1390 C   0  0  0  0  0  0  0  0  0  0  0  0
   34.9000   38.4940   28.5240 C   0  0  0  0  0  0  0  0  0  0  0  0
   33.7460   39.0210   29.3120 N   0  0  0  0  0  0  0  0  0  0  0  0
   32.2360   37.8310   28.4180 H   0  0  0  0  0  0  0  0  0  0  0  0
   31.6160   39.3600   29.1670 H   0  0  0  0  0  0  0  0  0  0  0  0
   32.6650   40.7230   27.3360 H   0  0  0  0  0  0  0  0  0  0  0  0
   31.5560   39.4640   26.6620 H   0  0  0  0  0  0  0  0  0  0  0  0
   33.4630   37.9410   26.1770 H   0  0  0  0  0  0  0  0  0  0  0  0
   35.8250   38.6430   26.5640 H   0  0  0  0  0  0  0  0  0  0  0  0
   35.2900   40.2340   27.2440 H   0  0  0  0  0  0  0  0  0  0  0  0
   34.7310   37.3880   28.3920 H   0  0  0  0  0  0  0  0  0  0  0  0
   35.8530   38.6510   29.0920 H   0  0  0  0  0  0  0  0  0  0  0  0
   33.9700   39.9880   30.3170 C   0  0  0  0  0  0  0  0  0  0  0  0
   35.1190   40.1930   30.6990 O   0  0  0  0  0  0  0  0  0  0  0  0
   32.7850   40.6290   30.9750 C   0  0  0  0  0  0  0  0  0  0  0  0
   32.0690   39.8660   31.3750 H   0  0  0  0  0  0  0  0  0  0  0  0
   33.1050   41.2680   31.8370 H   0  0  0  0  0  0  0  0  0  0  0  0
   32.2290   41.2860   30.2610 H   0  0  0  0  0  0  0  0  0  0  0  0
  1  3  2  0  0  0  0
  1  7  1  0  0  0  0
  1 22  1  0  0  0  0
  2 12  1  0  0  0  0
  2 18  2  0  0  0  0
  2 19  1  0  0  0  0
  3 13  1  0  0  0  0
  3 15  1  0  0  0  0
  4 17  2  0  0  0  0
  4 20  1  0  0  0  0
  4 21  1  0  0  0  0
  5  6  1  0  0  0  0
  5 10  1  0  0  0  0
  5 11  2  0  0  0  0
  6 12  2  0  0  0  0
  6 23  1  0  0  0  0
  7  8  2  0  0  0  0
  7 31  1  0  0  0  0
  8  9  1  0  0  0  0
  8 24  1  0  0  0  0
  9 13  2  0  0  0  0
  9 25  1  0  0  0  0
 10 19  1  0  0  0  0
 10 20  2  0  0  0  0
 11 17  1  0  0  0  0
 11 26  1  0  0  0  0
 12 16  1  0  0  0  0
 13 16  1  0  0  0  0
 14 19  1  0  0  0  0
 14 27  1  0  0  0  0
 14 28  1  0  0  0  0
 14 29  1  0  0  0  0
 21 30  1  0  0  0  0
 21 34  1  0  0  0  0
 32 33  1  0  0  0  0
 32 37  1  0  0  0  0
 32 38  1  0  0  0  0
 32 39  1  0  0  0  0
 33 34  1  0  0  0  0
 33 40  1  0  0  0  0
 33 41  1  0  0  0  0
 34 35  1  0  0  0  0
 34 42  1  0  0  0  0
 35 36  1  0  0  0  0
 35 43  1  0  0  0  0
 35 44  1  0  0  0  0
 36 37  1  0  0  0  0
 36 45  1  0  0  0  0
 36 46  1  0  0  0  0
 37 47  1  0  0  0  0
 47 48  2  0  0  0  0
 47 49  1  0  0  0  0
 49 50  1  0  0  0  0
 49 51  1  0  0  0  0
 49 52  1  0  0  0  0
M  END
$$$$
