18624-1
 OpenBabel02232411163D
Structure written by MMmdl.
 38 39  0  0  0  0  0  0  0  0999 V2000
   24.4670   11.0710   30.7820 C   0  0  0  0  0  0  0  0  0  0  0  0
   23.1300   11.2940   30.1100 C   0  0  0  0  0  0  0  0  0  0  0  0
   22.0470   11.3190   31.1170 O   0  0  0  0  0  0  0  0  0  0  0  0
   21.4800   10.1590   31.5160 C   0  0  0  0  0  0  0  0  0  0  0  0
   21.9670    8.9770   31.0700 N   0  0  0  0  0  0  0  0  0  0  0  0
   21.2820    7.8250   31.4280 C   0  0  0  0  0  0  0  0  0  0  0  0
   20.1510    7.8420   32.2380 C   0  0  0  0  0  0  0  0  0  0  0  0
   19.6530    9.0870   32.7110 C   0  0  0  0  0  0  0  0  0  0  0  0
   18.5170    9.1180   33.4800 N   0  0  0  0  0  0  0  0  0  0  0  0
   20.3320   10.2950   32.3540 C   0  0  0  0  0  0  0  0  0  0  0  0
   19.9130   11.5870   32.7340 C   0  0  0  0  0  0  0  0  0  0  0  0
   19.6210   12.6770   33.0050 N   0  0  0  0  0  0  0  0  0  0  0  0
   21.8640    6.6720   30.8470 N   0  0  0  0  0  0  0  0  0  0  0  0
   21.3490    5.3500   30.8550 C   0  0  0  0  0  0  0  0  0  0  0  0
   20.3290    5.0520   31.4390 O   0  0  0  0  0  0  0  0  0  0  0  0
   22.1710    4.3810   30.0190 C   0  0  0  0  0  0  0  0  0  0  0  0
   23.4440    3.9750   30.7150 C   0  0  0  0  0  0  0  0  0  0  0  0
   24.6200    4.7190   30.5280 C   0  0  0  0  0  0  0  0  0  0  0  0
   25.7950    4.3520   31.1900 C   0  0  0  0  0  0  0  0  0  0  0  0
   25.8070    3.2400   32.0380 C   0  0  0  0  0  0  0  0  0  0  0  0
   24.6430    2.4850   32.2090 C   0  0  0  0  0  0  0  0  0  0  0  0
   23.4660    2.8450   31.5450 C   0  0  0  0  0  0  0  0  0  0  0  0
   24.4830   10.1050   31.3400 H   0  0  0  0  0  0  0  0  0  0  0  0
   24.7070   11.9000   31.4830 H   0  0  0  0  0  0  0  0  0  0  0  0
   25.2670   11.0220   30.0010 H   0  0  0  0  0  0  0  0  0  0  0  0
   23.0260   12.3290   29.7030 H   0  0  0  0  0  0  0  0  0  0  0  0
   22.9090   10.5220   29.3380 H   0  0  0  0  0  0  0  0  0  0  0  0
   19.6290    6.9200   32.5000 H   0  0  0  0  0  0  0  0  0  0  0  0
   18.0240    8.2450   33.7470 H   0  0  0  0  0  0  0  0  0  0  0  0
   18.1090   10.0020   33.7870 H   0  0  0  0  0  0  0  0  0  0  0  0
   22.7430    6.8510   30.3190 H   0  0  0  0  0  0  0  0  0  0  0  0
   21.5460    3.4720   29.8150 H   0  0  0  0  0  0  0  0  0  0  0  0
   22.4150    4.8540   29.0300 H   0  0  0  0  0  0  0  0  0  0  0  0
   24.6390    5.5810   29.8580 H   0  0  0  0  0  0  0  0  0  0  0  0
   26.7080    4.9350   31.0390 H   0  0  0  0  0  0  0  0  0  0  0  0
   26.7270    2.9590   32.5580 H   0  0  0  0  0  0  0  0  0  0  0  0
   24.6550    1.6070   32.8610 H   0  0  0  0  0  0  0  0  0  0  0  0
   22.5730    2.2300   31.6760 H   0  0  0  0  0  0  0  0  0  0  0  0
  1  2  1  0  0  0  0
  1 23  1  0  0  0  0
  1 24  1  0  0  0  0
  1 25  1  0  0  0  0
  2  3  1  0  0  0  0
  2 26  1  0  0  0  0
  2 27  1  0  0  0  0
  3  4  1  0  0  0  0
  4 10  2  0  0  0  0
  4  5  1  0  0  0  0
  5  6  2  0  0  0  0
  6  7  1  0  0  0  0
  6 13  1  0  0  0  0
  7  8  2  0  0  0  0
  7 28  1  0  0  0  0
  8  9  1  0  0  0  0
  8 10  1  0  0  0  0
  9 29  1  0  0  0  0
  9 30  1  0  0  0  0
 10 11  1  0  0  0  0
 11 12  3  0  0  0  0
 13 14  1  0  0  0  0
 13 31  1  0  0  0  0
 14 15  2  0  0  0  0
 14 16  1  0  0  0  0
 16 17  1  0  0  0  0
 16 32  1  0  0  0  0
 16 33  1  0  0  0  0
 17 22  2  0  0  0  0
 17 18  1  0  0  0  0
 18 19  2  0  0  0  0
 18 34  1  0  0  0  0
 19 20  1  0  0  0  0
 19 35  1  0  0  0  0
 20 21  2  0  0  0  0
 20 36  1  0  0  0  0
 21 22  1  0  0  0  0
 21 37  1  0  0  0  0
 22 38  1  0  0  0  0
M  END
$$$$
