42
 OpenBabel02232411163D
Structure written by MMmdl.
 44 47  0  0  0  0  0  0  0  0999 V2000
    3.6970  -49.9380    5.9400 O   0  0  0  0  0  0  0  0  0  0  0  0
    2.9600  -49.0870    6.4750 C   0  0  0  0  0  0  0  0  0  0  0  0
    3.3210  -48.0670    7.0770 O   0  5  0  0  0  0  0  0  0  0  0  0
    1.4520  -49.3950    6.3780 C   0  0  0  0  0  0  0  0  0  0  0  0
   -0.3880  -50.7500    6.5330 C   0  0  0  0  0  0  0  0  0  0  0  0
   -1.2960  -51.8010    6.7550 C   0  0  0  0  0  0  0  0  0  0  0  0
   -2.6290  -51.5680    6.4490 C   0  0  0  0  0  0  0  0  0  0  0  0
   -3.0590  -50.3220    5.9340 C   0  0  0  0  0  0  0  0  0  0  0  0
   -2.1680  -49.2800    5.7170 C   0  0  0  0  0  0  0  0  0  0  0  0
   -0.8090  -49.4720    6.0170 C   0  0  0  0  0  0  0  0  0  0  0  0
    0.3720  -48.6360    5.9410 C   0  0  0  0  0  0  0  0  0  0  0  0
    0.3420  -47.2250    5.4740 C   0  0  0  0  0  0  0  0  0  0  0  0
    0.3150  -46.2070    6.6290 C   0  0  0  0  0  0  0  0  0  0  0  0
   -0.8500  -46.3770    7.5960 C   0  0  0  0  0  0  0  0  0  0  0  0
   -2.0370  -45.8380    6.8990 O   0  0  0  0  0  0  0  0  0  0  0  0
   -3.2190  -45.8500    7.5780 C   0  0  0  0  0  0  0  0  0  0  0  0
   -5.7420  -45.6310    8.8040 C   0  0  0  0  0  0  0  0  0  0  0  0
   -4.7480  -46.3890    9.3720 C   0  0  0  0  0  0  0  0  0  0  0  0
   -3.4680  -46.5020    8.7720 C   0  0  0  0  0  0  0  0  0  0  0  0
   -0.9720  -52.7620    7.1530 H   0  0  0  0  0  0  0  0  0  0  0  0
   -3.3690  -52.3540    6.6090 H   0  0  0  0  0  0  0  0  0  0  0  0
   -4.1180  -50.1890    5.7060 H   0  0  0  0  0  0  0  0  0  0  0  0
   -2.5250  -48.3270    5.3250 H   0  0  0  0  0  0  0  0  0  0  0  0
   -0.5780  -47.0730    4.8520 H   0  0  0  0  0  0  0  0  0  0  0  0
    1.2360  -47.0030    4.8420 H   0  0  0  0  0  0  0  0  0  0  0  0
    0.2710  -45.1780    6.2030 H   0  0  0  0  0  0  0  0  0  0  0  0
    1.2550  -46.3210    7.2270 H   0  0  0  0  0  0  0  0  0  0  0  0
   -0.7230  -45.7440    8.5010 H   0  0  0  0  0  0  0  0  0  0  0  0
   -1.0650  -47.4420    7.8210 H   0  0  0  0  0  0  0  0  0  0  0  0
   -2.7310  -47.1180    9.2760 H   0  0  0  0  0  0  0  0  0  0  0  0
   -5.5200  -44.9780    7.5520 C   0  0  0  0  0  0  0  0  0  0  0  0
   -4.2550  -45.0870    6.9160 C   0  0  0  0  0  0  0  0  0  0  0  0
   -4.0530  -44.4820    5.6430 C   0  0  0  0  0  0  0  0  0  0  0  0
   -5.0640  -43.7750    5.0360 C   0  0  0  0  0  0  0  0  0  0  0  0
   -6.3300  -43.6620    5.6700 C   0  0  0  0  0  0  0  0  0  0  0  0
   -6.5560  -44.2450    6.8940 C   0  0  0  0  0  0  0  0  0  0  0  0
   -3.0910  -44.6110    5.1460 H   0  0  0  0  0  0  0  0  0  0  0  0
   -4.9120  -43.3020    4.0690 H   0  0  0  0  0  0  0  0  0  0  0  0
   -7.1200  -43.1100    5.1650 H   0  0  0  0  0  0  0  0  0  0  0  0
   -7.5310  -44.1680    7.3740 H   0  0  0  0  0  0  0  0  0  0  0  0
   -4.9340  -46.9260   10.3060 H   0  0  0  0  0  0  0  0  0  0  0  0
   -6.7150  -45.5350    9.2840 H   0  0  0  0  0  0  0  0  0  0  0  0
    0.9970  -50.6760    6.7490 N   0  0  0  0  0  0  0  0  0  0  0  0
    1.5530  -51.4530    7.0860 H   0  0  0  0  0  0  0  0  0  0  0  0
  1  2  2  0  0  0  0
  2  3  1  0  0  0  0
  2  4  1  0  0  0  0
  4 11  2  0  0  0  0
  4 43  1  0  0  0  0
  5  6  2  0  0  0  0
  5 10  1  0  0  0  0
  5 43  1  0  0  0  0
  6  7  1  0  0  0  0
  6 20  1  0  0  0  0
  7  8  2  0  0  0  0
  7 21  1  0  0  0  0
  8  9  1  0  0  0  0
  8 22  1  0  0  0  0
  9 10  2  0  0  0  0
  9 23  1  0  0  0  0
 10 11  1  0  0  0  0
 11 12  1  0  0  0  0
 12 24  1  0  0  0  0
 12 25  1  0  0  0  0
 12 13  1  0  0  0  0
 13 14  1  0  0  0  0
 13 26  1  0  0  0  0
 13 27  1  0  0  0  0
 14 15  1  0  0  0  0
 14 28  1  0  0  0  0
 14 29  1  0  0  0  0
 15 16  1  0  0  0  0
 16 19  2  0  0  0  0
 16 32  1  0  0  0  0
 17 18  2  0  0  0  0
 17 31  1  0  0  0  0
 17 42  1  0  0  0  0
 18 19  1  0  0  0  0
 18 41  1  0  0  0  0
 19 30  1  0  0  0  0
 31 32  2  0  0  0  0
 31 36  1  0  0  0  0
 32 33  1  0  0  0  0
 33 34  2  0  0  0  0
 33 37  1  0  0  0  0
 34 35  1  0  0  0  0
 34 38  1  0  0  0  0
 35 36  2  0  0  0  0
 35 39  1  0  0  0  0
 36 40  1  0  0  0  0
 43 44  1  0  0  0  0
M  CHG  1   3  -1
M  END
$$$$
