p38a_2g
 OpenBabel02232411163D
Structure written by MMmdl.
 46 49  0  0  0  0  0  0  0  0999 V2000
   32.1120   39.5470   26.9600 C   0  0  0  0  0  0  0  0  0  0  0  0
   33.0160   40.2710   27.9670 C   0  0  0  0  0  0  0  0  0  0  0  0
   34.7920   38.6730   27.6940 C   0  0  0  0  0  0  0  0  0  0  0  0
   33.9650   37.8140   26.7380 C   0  0  0  0  0  0  0  0  0  0  0  0
   38.4580   36.5050   17.2380 C   0  0  0  0  0  0  0  0  0  0  0  0
   33.9380   39.3790   28.6250 O   0  0  0  0  0  0  0  0  0  0  0  0
   34.4740   34.9920   20.9180 C   0  0  0  0  0  0  0  0  0  0  0  0
   37.5440   36.0640   18.1910 C   0  0  0  0  0  0  0  0  0  0  0  0
   33.8410   38.9180   23.6830 C   0  0  0  0  0  0  0  0  0  0  0  0
   32.8870   38.6290   25.9930 C   0  0  0  0  0  0  0  0  0  0  0  0
   34.6080   37.8570   21.2520 C   0  0  0  0  0  0  0  0  0  0  0  0
   35.0290   37.2690   20.0100 C   0  0  0  0  0  0  0  0  0  0  0  0
   38.0050   36.7030   15.9270 C   0  0  0  0  0  0  0  0  0  0  0  0
   36.6730   36.4500   15.5860 C   0  0  0  0  0  0  0  0  0  0  0  0
   35.7580   35.9910   16.5410 C   0  0  0  0  0  0  0  0  0  0  0  0
   34.1330   37.0250   22.3100 C   0  0  0  0  0  0  0  0  0  0  0  0
   34.6480   39.2550   21.5040 C   0  0  0  0  0  0  0  0  0  0  0  0
   34.9780   35.9240   19.8750 C   0  0  0  0  0  0  0  0  0  0  0  0
   36.2040   35.7910   17.8480 C   0  0  0  0  0  0  0  0  0  0  0  0
   33.5490   34.7970   23.2600 C   0  0  0  0  0  0  0  0  0  0  0  0
   37.9250   35.8930   19.4540 F   0  0  0  0  0  0  0  0  0  0  0  0
   35.3290   35.1760   18.7520 O   0  0  0  0  0  0  0  0  0  0  0  0
   34.2910   39.8000   22.6770 N   0  0  0  0  0  0  0  0  0  0  0  0
   34.3990   33.7880   20.8090 O   0  0  0  0  0  0  0  0  0  0  0  0
   34.0560   35.6330   22.1360 N   0  0  0  0  0  0  0  0  0  0  0  0
   33.7480   37.5480   23.5180 N   0  0  0  0  0  0  0  0  0  0  0  0
   33.4690   39.4590   24.8880 N   0  0  0  0  0  0  0  0  0  0  0  0
   31.3720   38.9130   27.5080 H   0  0  0  0  0  0  0  0  0  0  0  0
   31.5440   40.3120   26.3750 H   0  0  0  0  0  0  0  0  0  0  0  0
   33.6000   41.0750   27.4650 H   0  0  0  0  0  0  0  0  0  0  0  0
   32.4230   40.6750   28.8190 H   0  0  0  0  0  0  0  0  0  0  0  0
   35.4090   38.0450   28.3770 H   0  0  0  0  0  0  0  0  0  0  0  0
   35.4110   39.4140   27.1390 H   0  0  0  0  0  0  0  0  0  0  0  0
   34.6450   37.3090   26.0080 H   0  0  0  0  0  0  0  0  0  0  0  0
   33.4390   37.0070   27.3100 H   0  0  0  0  0  0  0  0  0  0  0  0
   39.4940   36.7230   17.5030 H   0  0  0  0  0  0  0  0  0  0  0  0
   32.1540   37.9060   25.5260 H   0  0  0  0  0  0  0  0  0  0  0  0
   35.3860   37.9320   19.2190 H   0  0  0  0  0  0  0  0  0  0  0  0
   36.3280   36.6310   14.5670 H   0  0  0  0  0  0  0  0  0  0  0  0
   34.7170   35.8120   16.2620 H   0  0  0  0  0  0  0  0  0  0  0  0
   34.9810   39.9450   20.7120 H   0  0  0  0  0  0  0  0  0  0  0  0
   34.1920   34.9430   24.1700 H   0  0  0  0  0  0  0  0  0  0  0  0
   32.4980   35.1020   23.5190 H   0  0  0  0  0  0  0  0  0  0  0  0
   33.5560   33.7140   22.9740 H   0  0  0  0  0  0  0  0  0  0  0  0
   33.5620   40.4790   25.0500 H   0  0  0  0  0  0  0  0  0  0  0  0
   38.6920   37.0790   15.1700 H   0  0  0  0  0  0  0  0  0  0  0  0
  1  2  1  0  0  0  0
  1 10  1  0  0  0  0
  1 28  1  0  0  0  0
  1 29  1  0  0  0  0
  2  6  1  0  0  0  0
  2 30  1  0  0  0  0
  2 31  1  0  0  0  0
  3  4  1  0  0  0  0
  3  6  1  0  0  0  0
  3 32  1  0  0  0  0
  3 33  1  0  0  0  0
  4 10  1  0  0  0  0
  4 34  1  0  0  0  0
  4 35  1  0  0  0  0
  5  8  2  0  0  0  0
  5 13  1  0  0  0  0
  5 36  1  0  0  0  0
  7 18  1  0  0  0  0
  7 24  2  0  0  0  0
  7 25  1  0  0  0  0
  8 19  1  0  0  0  0
  8 21  1  0  0  0  0
  9 23  2  0  0  0  0
  9 26  1  0  0  0  0
  9 27  1  0  0  0  0
 10 27  1  0  0  0  0
 10 37  1  0  0  0  0
 11 12  1  0  0  0  0
 11 16  1  0  0  0  0
 11 17  2  0  0  0  0
 12 18  2  0  0  0  0
 12 38  1  0  0  0  0
 13 14  2  0  0  0  0
 13 46  1  0  0  0  0
 14 15  1  0  0  0  0
 14 39  1  0  0  0  0
 15 19  2  0  0  0  0
 15 40  1  0  0  0  0
 16 25  1  0  0  0  0
 16 26  2  0  0  0  0
 17 23  1  0  0  0  0
 17 41  1  0  0  0  0
 18 22  1  0  0  0  0
 19 22  1  0  0  0  0
 20 25  1  0  0  0  0
 20 42  1  0  0  0  0
 20 43  1  0  0  0  0
 20 44  1  0  0  0  0
 27 45  1  0  0  0  0
M  END
$$$$
