p38a_3flw
 OpenBabel02232411163D
Structure written by MMmdl.
 49 51  0  0  0  0  0  0  0  0999 V2000
   38.2540   36.5120   17.1880 C   0  0  0  0  0  0  0  0  0  0  0  0
   37.6200   36.6650   15.9480 C   0  0  0  0  0  0  0  0  0  0  0  0
   34.3340   39.8210   27.4440 C   0  0  0  0  0  0  0  0  0  0  0  0
   34.0030   39.1940   28.8030 C   0  0  0  0  0  0  0  0  0  0  0  0
   32.0460   39.4580   26.3450 C   0  0  0  0  0  0  0  0  0  0  0  0
   34.0860   35.0770   23.7600 C   0  0  0  0  0  0  0  0  0  0  0  0
   37.9810   35.9310   19.4510 F   0  0  0  0  0  0  0  0  0  0  0  0
   37.4590   36.0630   18.2390 C   0  0  0  0  0  0  0  0  0  0  0  0
   38.3280   37.1610   14.9360 F   0  0  0  0  0  0  0  0  0  0  0  0
   36.2740   36.3620   15.7290 C   0  0  0  0  0  0  0  0  0  0  0  0
   35.4980   35.9020   16.7990 C   0  0  0  0  0  0  0  0  0  0  0  0
   36.0970   35.7460   18.0520 C   0  0  0  0  0  0  0  0  0  0  0  0
   35.3540   35.1420   19.0770 O   0  0  0  0  0  0  0  0  0  0  0  0
   35.0230   35.9740   20.1460 C   0  0  0  0  0  0  0  0  0  0  0  0
   35.0540   37.3260   20.1700 C   0  0  0  0  0  0  0  0  0  0  0  0
   34.7320   38.0020   21.3970 C   0  0  0  0  0  0  0  0  0  0  0  0
   34.6980   39.4160   21.5130 C   0  0  0  0  0  0  0  0  0  0  0  0
   34.4650   40.0470   22.6750 N   0  0  0  0  0  0  0  0  0  0  0  0
   34.5840   35.1280   21.2880 C   0  0  0  0  0  0  0  0  0  0  0  0
   34.3980   33.9320   21.2530 O   0  0  0  0  0  0  0  0  0  0  0  0
   34.3720   35.8500   22.5180 N   0  0  0  0  0  0  0  0  0  0  0  0
   34.4430   37.2480   22.5730 C   0  0  0  0  0  0  0  0  0  0  0  0
   34.2030   37.8640   23.7780 N   0  0  0  0  0  0  0  0  0  0  0  0
   34.2520   39.2450   23.8090 C   0  0  0  0  0  0  0  0  0  0  0  0
   34.1300   39.8890   25.0240 N   0  0  0  0  0  0  0  0  0  0  0  0
   33.5700   39.2190   26.2410 C   0  0  0  0  0  0  0  0  0  0  0  0
   31.2220   39.0260   25.1220 C   0  0  0  0  0  0  0  0  0  0  0  0
   31.3530   37.6310   24.8230 O   0  0  0  0  0  0  0  0  0  0  0  0
   34.5420   37.8710   28.9580 O   0  0  0  0  0  0  0  0  0  0  0  0
   39.3080   36.7720   17.3310 H   0  0  0  0  0  0  0  0  0  0  0  0
   34.1050   40.9170   27.5120 H   0  0  0  0  0  0  0  0  0  0  0  0
   35.4320   39.7170   27.2540 H   0  0  0  0  0  0  0  0  0  0  0  0
   34.5150   39.7680   29.6150 H   0  0  0  0  0  0  0  0  0  0  0  0
   32.9040   39.1590   28.9830 H   0  0  0  0  0  0  0  0  0  0  0  0
   31.6710   38.9050   27.2400 H   0  0  0  0  0  0  0  0  0  0  0  0
   31.8710   40.5500   26.5120 H   0  0  0  0  0  0  0  0  0  0  0  0
   34.6910   35.4810   24.6160 H   0  0  0  0  0  0  0  0  0  0  0  0
   32.9970   35.1560   24.0170 H   0  0  0  0  0  0  0  0  0  0  0  0
   34.3510   33.9970   23.6100 H   0  0  0  0  0  0  0  0  0  0  0  0
   35.8150   36.4970   14.7470 H   0  0  0  0  0  0  0  0  0  0  0  0
   34.4360   35.6860   16.6480 H   0  0  0  0  0  0  0  0  0  0  0  0
   35.3280   37.9310   19.3030 H   0  0  0  0  0  0  0  0  0  0  0  0
   34.8510   40.0460   20.6220 H   0  0  0  0  0  0  0  0  0  0  0  0
   34.0180   40.9240   25.0370 H   0  0  0  0  0  0  0  0  0  0  0  0
   33.7780   38.1190   26.1860 H   0  0  0  0  0  0  0  0  0  0  0  0
   30.1340   39.1380   25.3390 H   0  0  0  0  0  0  0  0  0  0  0  0
   31.5160   39.6140   24.2250 H   0  0  0  0  0  0  0  0  0  0  0  0
   32.3040   37.4430   24.6360 H   0  0  0  0  0  0  0  0  0  0  0  0
   34.1820   37.2880   28.2450 H   0  0  0  0  0  0  0  0  0  0  0  0
  1  2  2  0  0  0  0
  1  8  1  0  0  0  0
  1 30  1  0  0  0  0
  2  9  1  0  0  0  0
  2 10  1  0  0  0  0
  3  4  1  0  0  0  0
  3 26  1  0  0  0  0
  3 31  1  0  0  0  0
  3 32  1  0  0  0  0
  4 29  1  0  0  0  0
  4 33  1  0  0  0  0
  4 34  1  0  0  0  0
  5 26  1  0  0  0  0
  5 27  1  0  0  0  0
  5 35  1  0  0  0  0
  5 36  1  0  0  0  0
  6 21  1  0  0  0  0
  6 37  1  0  0  0  0
  6 38  1  0  0  0  0
  6 39  1  0  0  0  0
  7  8  1  0  0  0  0
  8 12  2  0  0  0  0
 10 11  2  0  0  0  0
 10 40  1  0  0  0  0
 11 12  1  0  0  0  0
 11 41  1  0  0  0  0
 12 13  1  0  0  0  0
 13 14  1  0  0  0  0
 14 15  2  0  0  0  0
 14 19  1  0  0  0  0
 15 16  1  0  0  0  0
 15 42  1  0  0  0  0
 16 17  2  0  0  0  0
 16 22  1  0  0  0  0
 17 18  1  0  0  0  0
 17 43  1  0  0  0  0
 18 24  2  0  0  0  0
 19 20  2  0  0  0  0
 19 21  1  0  0  0  0
 21 22  1  0  0  0  0
 22 23  2  0  0  0  0
 23 24  1  0  0  0  0
 24 25  1  0  0  0  0
 25 26  1  0  0  0  0
 25 44  1  0  0  0  0
 26 45  1  0  0  0  0
 27 28  1  0  0  0  0
 27 46  1  0  0  0  0
 27 47  1  0  0  0  0
 28 48  1  0  0  0  0
 29 49  1  0  0  0  0
M  END
$$$$
