18637-1
 OpenBabel02232411163D
Structure written by MMmdl.
 53 54  0  0  0  0  0  0  0  0999 V2000
   23.8060   12.7190   30.3500 C   0  0  0  0  0  0  0  0  0  0  0  0
   23.3710   11.2690   30.4490 C   0  0  0  0  0  0  0  0  0  0  0  0
   22.1280   11.3470   31.2560 O   0  0  0  0  0  0  0  0  0  0  0  0
   21.5060   10.1990   31.5990 C   0  0  0  0  0  0  0  0  0  0  0  0
   21.9960    9.0150   31.1610 N   0  0  0  0  0  0  0  0  0  0  0  0
   21.2670    7.8730   31.4660 C   0  0  0  0  0  0  0  0  0  0  0  0
   20.1110    7.9040   32.2410 C   0  0  0  0  0  0  0  0  0  0  0  0
   19.6190    9.1480   32.7150 C   0  0  0  0  0  0  0  0  0  0  0  0
   18.4780    9.1810   33.4770 N   0  0  0  0  0  0  0  0  0  0  0  0
   20.3180   10.3510   32.3760 C   0  0  0  0  0  0  0  0  0  0  0  0
   19.8840   11.6480   32.7180 C   0  0  0  0  0  0  0  0  0  0  0  0
   19.5740   12.7410   32.9540 N   0  0  0  0  0  0  0  0  0  0  0  0
   21.8250    6.7150   30.8830 N   0  0  0  0  0  0  0  0  0  0  0  0
   21.2100    5.4410   30.7920 C   0  0  0  0  0  0  0  0  0  0  0  0
   20.1320    5.2010   31.2930 O   0  0  0  0  0  0  0  0  0  0  0  0
   22.0010    4.4460   29.9530 C   0  0  0  0  0  0  0  0  0  0  0  0
   23.3100    4.0760   30.5820 C   0  0  0  0  0  0  0  0  0  0  0  0
   24.4690    4.8580   30.3740 C   0  0  0  0  0  0  0  0  0  0  0  0
   24.2480    5.9370   29.5380 O   0  0  0  0  0  0  0  0  0  0  0  0
   25.2990    6.9270   29.3760 C   0  0  0  0  0  0  0  0  0  0  0  0
   25.7040    4.5450   30.9550 C   0  0  0  0  0  0  0  0  0  0  0  0
   25.8110    3.4110   31.7670 C   0  0  0  0  0  0  0  0  0  0  0  0
   24.6410    2.6210   31.9870 C   0  0  0  0  0  0  0  0  0  0  0  0
   23.4230    2.9400   31.3930 C   0  0  0  0  0  0  0  0  0  0  0  0
   24.8150    1.5840   32.8960 O   0  0  0  0  0  0  0  0  0  0  0  0
   24.1090    0.3490   32.6020 C   0  0  0  0  0  0  0  0  0  0  0  0
   27.0130    3.0080   32.4090 N   0  0  0  0  0  0  0  0  0  0  0  0
   28.3140    3.5210   32.1760 C   0  0  0  0  0  0  0  0  0  0  0  0
   28.5140    4.3920   31.3470 O   0  0  0  0  0  0  0  0  0  0  0  0
   29.3720    2.8930   33.0300 C   0  0  0  0  0  0  0  0  0  0  0  0
   24.0090   13.1530   31.3550 H   0  0  0  0  0  0  0  0  0  0  0  0
   23.0270   13.3380   29.8440 H   0  0  0  0  0  0  0  0  0  0  0  0
   24.7420   12.7730   29.7400 H   0  0  0  0  0  0  0  0  0  0  0  0
   23.1030   10.8370   29.4590 H   0  0  0  0  0  0  0  0  0  0  0  0
   24.1050   10.6390   30.9980 H   0  0  0  0  0  0  0  0  0  0  0  0
   19.5620    6.9890   32.4740 H   0  0  0  0  0  0  0  0  0  0  0  0
   18.0670   10.0630   33.7810 H   0  0  0  0  0  0  0  0  0  0  0  0
   17.9700    8.3080   33.7170 H   0  0  0  0  0  0  0  0  0  0  0  0
   22.7480    6.8510   30.4040 H   0  0  0  0  0  0  0  0  0  0  0  0
   21.3780    3.5250   29.8110 H   0  0  0  0  0  0  0  0  0  0  0  0
   22.1900    4.9050   28.9450 H   0  0  0  0  0  0  0  0  0  0  0  0
   25.5970    7.3380   30.3640 H   0  0  0  0  0  0  0  0  0  0  0  0
   26.1520    6.4770   28.8260 H   0  0  0  0  0  0  0  0  0  0  0  0
   24.7770    7.6960   28.7600 H   0  0  0  0  0  0  0  0  0  0  0  0
   26.5800    5.1760   30.7700 H   0  0  0  0  0  0  0  0  0  0  0  0
   22.5540    2.2990   31.5670 H   0  0  0  0  0  0  0  0  0  0  0  0
   24.6300   -0.3740   33.2720 H   0  0  0  0  0  0  0  0  0  0  0  0
   23.0410    0.4640   32.8860 H   0  0  0  0  0  0  0  0  0  0  0  0
   24.2330    0.0700   31.5350 H   0  0  0  0  0  0  0  0  0  0  0  0
   26.9270    2.1890   33.0420 H   0  0  0  0  0  0  0  0  0  0  0  0
   29.0960    2.8910   34.1150 H   0  0  0  0  0  0  0  0  0  0  0  0
   29.5570    1.8290   32.7260 H   0  0  0  0  0  0  0  0  0  0  0  0
   30.3430    3.4440   32.9300 H   0  0  0  0  0  0  0  0  0  0  0  0
  1  2  1  0  0  0  0
  1 31  1  0  0  0  0
  1 32  1  0  0  0  0
  1 33  1  0  0  0  0
  2  3  1  0  0  0  0
  2 34  1  0  0  0  0
  2 35  1  0  0  0  0
  3  4  1  0  0  0  0
  4 10  2  0  0  0  0
  4  5  1  0  0  0  0
  5  6  2  0  0  0  0
  6  7  1  0  0  0  0
  6 13  1  0  0  0  0
  7  8  2  0  0  0  0
  7 36  1  0  0  0  0
  8  9  1  0  0  0  0
  8 10  1  0  0  0  0
  9 37  1  0  0  0  0
  9 38  1  0  0  0  0
 10 11  1  0  0  0  0
 11 12  3  0  0  0  0
 13 14  1  0  0  0  0
 13 39  1  0  0  0  0
 14 15  2  0  0  0  0
 14 16  1  0  0  0  0
 16 17  1  0  0  0  0
 16 40  1  0  0  0  0
 16 41  1  0  0  0  0
 17 24  2  0  0  0  0
 17 18  1  0  0  0  0
 18 19  1  0  0  0  0
 18 21  2  0  0  0  0
 19 20  1  0  0  0  0
 20 42  1  0  0  0  0
 20 43  1  0  0  0  0
 20 44  1  0  0  0  0
 21 22  1  0  0  0  0
 21 45  1  0  0  0  0
 22 23  2  0  0  0  0
 22 27  1  0  0  0  0
 23 24  1  0  0  0  0
 23 25  1  0  0  0  0
 24 46  1  0  0  0  0
 25 26  1  0  0  0  0
 26 47  1  0  0  0  0
 26 48  1  0  0  0  0
 26 49  1  0  0  0  0
 27 28  1  0  0  0  0
 27 50  1  0  0  0  0
 28 29  2  0  0  0  0
 28 30  1  0  0  0  0
 30 51  1  0  0  0  0
 30 52  1  0  0  0  0
 30 53  1  0  0  0  0
M  END
$$$$
