46
 OpenBabel02232411163D
Structure written by MMmdl.
 45 48  0  0  0  0  0  0  0  0999 V2000
    3.9130  -48.9000    7.4150 O   0  0  0  0  0  0  0  0  0  0  0  0
    3.4390  -50.0430    7.3390 C   0  0  0  0  0  0  0  0  0  0  0  0
    4.0560  -51.1090    7.5410 O   0  5  0  0  0  0  0  0  0  0  0  0
    1.9620  -50.1870    6.9410 C   0  0  0  0  0  0  0  0  0  0  0  0
   -0.0440  -51.2510    6.7380 C   0  0  0  0  0  0  0  0  0  0  0  0
   -1.1170  -52.1600    6.8130 C   0  0  0  0  0  0  0  0  0  0  0  0
   -2.3370  -51.7520    6.3040 C   0  0  0  0  0  0  0  0  0  0  0  0
   -2.4880  -50.4750    5.7110 C   0  0  0  0  0  0  0  0  0  0  0  0
   -1.4310  -49.5820    5.6220 C   0  0  0  0  0  0  0  0  0  0  0  0
   -0.1760  -49.9320    6.1570 C   0  0  0  0  0  0  0  0  0  0  0  0
    1.1010  -49.2770    6.3210 C   0  0  0  0  0  0  0  0  0  0  0  0
    1.5240  -47.8980    5.9540 C   0  0  0  0  0  0  0  0  0  0  0  0
    0.4300  -46.8520    5.7230 C   0  0  0  0  0  0  0  0  0  0  0  0
   -0.5360  -46.6520    6.8940 C   0  0  0  0  0  0  0  0  0  0  0  0
   -1.6270  -45.9410    6.2080 O   0  0  0  0  0  0  0  0  0  0  0  0
   -2.8190  -45.6990    6.8200 C   0  0  0  0  0  0  0  0  0  0  0  0
   -4.4920  -45.8440    8.5590 C   0  0  0  0  0  0  0  0  0  0  0  0
   -3.2040  -46.1530    8.0870 C   0  0  0  0  0  0  0  0  0  0  0  0
   -0.9970  -53.1460    7.2630 H   0  0  0  0  0  0  0  0  0  0  0  0
   -3.2030  -52.4130    6.3590 H   0  0  0  0  0  0  0  0  0  0  0  0
   -3.4690  -50.1970    5.3200 H   0  0  0  0  0  0  0  0  0  0  0  0
   -1.5950  -48.6200    5.1370 H   0  0  0  0  0  0  0  0  0  0  0  0
    2.1230  -47.9520    5.0070 H   0  0  0  0  0  0  0  0  0  0  0  0
    2.2020  -47.5160    6.7690 H   0  0  0  0  0  0  0  0  0  0  0  0
    0.9210  -45.8740    5.4990 H   0  0  0  0  0  0  0  0  0  0  0  0
   -0.1850  -47.1280    4.8290 H   0  0  0  0  0  0  0  0  0  0  0  0
   -0.1560  -45.9730    7.6810 H   0  0  0  0  0  0  0  0  0  0  0  0
   -0.9370  -47.6030    7.2980 H   0  0  0  0  0  0  0  0  0  0  0  0
   -2.5480  -46.7500    8.7120 H   0  0  0  0  0  0  0  0  0  0  0  0
   -3.6850  -44.9260    6.0000 C   0  0  0  0  0  0  0  0  0  0  0  0
   -4.8170  -46.2040    9.5360 H   0  0  0  0  0  0  0  0  0  0  0  0
   -3.3700  -44.5970    5.0160 H   0  0  0  0  0  0  0  0  0  0  0  0
    1.2720  -51.3850    7.1920 N   0  0  0  0  0  0  0  0  0  0  0  0
   -7.2540  -43.9640    6.7760 C   0  0  0  0  0  0  0  0  0  0  0  0
   -6.0530  -43.8940    5.7960 C   0  0  0  0  0  0  0  0  0  0  0  0
   -4.9420  -44.6330    6.4910 C   0  0  0  0  0  0  0  0  0  0  0  0
   -5.3480  -45.0870    7.7750 C   0  0  0  0  0  0  0  0  0  0  0  0
   -6.7490  -44.6420    8.0800 C   0  0  0  0  0  0  0  0  0  0  0  0
   -6.7360  -43.9180    8.9210 H   0  0  0  0  0  0  0  0  0  0  0  0
   -7.4030  -45.5010    8.3500 H   0  0  0  0  0  0  0  0  0  0  0  0
   -7.6500  -42.9510    6.9880 H   0  0  0  0  0  0  0  0  0  0  0  0
   -8.0700  -44.5720    6.3310 H   0  0  0  0  0  0  0  0  0  0  0  0
   -6.3100  -44.3880    4.8320 H   0  0  0  0  0  0  0  0  0  0  0  0
   -5.7630  -42.8410    5.5930 H   0  0  0  0  0  0  0  0  0  0  0  0
    1.6310  -52.2260    7.6330 H   0  0  0  0  0  0  0  0  0  0  0  0
  1  2  2  0  0  0  0
  2  3  1  0  0  0  0
  2  4  1  0  0  0  0
  4 11  2  0  0  0  0
  4 33  1  0  0  0  0
  5  6  2  0  0  0  0
  5 10  1  0  0  0  0
  5 33  1  0  0  0  0
  6  7  1  0  0  0  0
  6 19  1  0  0  0  0
  7  8  2  0  0  0  0
  7 20  1  0  0  0  0
  8  9  1  0  0  0  0
  8 21  1  0  0  0  0
  9 10  2  0  0  0  0
  9 22  1  0  0  0  0
 10 11  1  0  0  0  0
 11 12  1  0  0  0  0
 12 23  1  0  0  0  0
 12 24  1  0  0  0  0
 12 13  1  0  0  0  0
 13 14  1  0  0  0  0
 13 25  1  0  0  0  0
 13 26  1  0  0  0  0
 14 15  1  0  0  0  0
 14 27  1  0  0  0  0
 14 28  1  0  0  0  0
 15 16  1  0  0  0  0
 16 18  2  0  0  0  0
 16 30  1  0  0  0  0
 17 18  1  0  0  0  0
 17 31  1  0  0  0  0
 17 37  2  0  0  0  0
 18 29  1  0  0  0  0
 30 32  1  0  0  0  0
 30 36  2  0  0  0  0
 33 45  1  0  0  0  0
 34 35  1  0  0  0  0
 34 38  1  0  0  0  0
 34 41  1  0  0  0  0
 34 42  1  0  0  0  0
 35 36  1  0  0  0  0
 35 43  1  0  0  0  0
 35 44  1  0  0  0  0
 36 37  1  0  0  0  0
 37 38  1  0  0  0  0
 38 39  1  0  0  0  0
 38 40  1  0  0  0  0
M  CHG  1   3  -1
M  END
$$$$
