18637-1
 OpenBabel02232411163D
Structure written by MMmdl.
 53 54  0  0  0  0  0  0  0  0999 V2000
   24.4970   10.7180   30.7890 C   0  0  0  0  0  0  0  0  0  0  0  0
   23.1930   11.1290   30.1370 C   0  0  0  0  0  0  0  0  0  0  0  0
   22.1040   11.2050   31.1320 O   0  0  0  0  0  0  0  0  0  0  0  0
   21.5030   10.0620   31.5400 C   0  0  0  0  0  0  0  0  0  0  0  0
   21.9600    8.8700   31.0950 N   0  0  0  0  0  0  0  0  0  0  0  0
   21.2550    7.7330   31.4610 C   0  0  0  0  0  0  0  0  0  0  0  0
   20.1230    7.7800   32.2710 C   0  0  0  0  0  0  0  0  0  0  0  0
   19.6560    9.0350   32.7410 C   0  0  0  0  0  0  0  0  0  0  0  0
   18.5190    9.0880   33.5080 N   0  0  0  0  0  0  0  0  0  0  0  0
   20.3650   10.2280   32.3840 C   0  0  0  0  0  0  0  0  0  0  0  0
   19.9790   11.5280   32.7730 C   0  0  0  0  0  0  0  0  0  0  0  0
   19.7120   12.6210   33.0560 N   0  0  0  0  0  0  0  0  0  0  0  0
   21.8170    6.5660   30.9020 N   0  0  0  0  0  0  0  0  0  0  0  0
   21.2130    5.2880   30.8320 C   0  0  0  0  0  0  0  0  0  0  0  0
   20.1450    5.0440   31.3510 O   0  0  0  0  0  0  0  0  0  0  0  0
   21.9960    4.2940   29.9850 C   0  0  0  0  0  0  0  0  0  0  0  0
   23.3240    3.9330   30.5790 C   0  0  0  0  0  0  0  0  0  0  0  0
   24.4620    4.7360   30.3390 C   0  0  0  0  0  0  0  0  0  0  0  0
   24.1990    5.8270   29.5240 O   0  0  0  0  0  0  0  0  0  0  0  0
   25.2560    6.8010   29.3200 C   0  0  0  0  0  0  0  0  0  0  0  0
   25.7130    4.4210   30.8750 C   0  0  0  0  0  0  0  0  0  0  0  0
   25.8620    3.2700   31.6660 C   0  0  0  0  0  0  0  0  0  0  0  0
   24.7280    2.4370   31.8920 C   0  0  0  0  0  0  0  0  0  0  0  0
   23.4810    2.7800   31.3560 C   0  0  0  0  0  0  0  0  0  0  0  0
   24.9620    1.3290   32.6860 O   0  0  0  0  0  0  0  0  0  0  0  0
   24.0460    0.2130   32.5020 C   0  0  0  0  0  0  0  0  0  0  0  0
   27.1680    2.9610   32.1470 N   0  0  0  0  0  0  0  0  0  0  0  0
   27.5010    2.4010   33.4130 C   0  0  0  0  0  0  0  0  0  0  0  0
   26.6400    2.0430   34.1910 O   0  0  0  0  0  0  0  0  0  0  0  0
   28.9800    2.3030   33.6390 C   0  0  0  0  0  0  0  0  0  0  0  0
   24.4250    9.6940   31.2260 H   0  0  0  0  0  0  0  0  0  0  0  0
   24.7890   11.4330   31.5850 H   0  0  0  0  0  0  0  0  0  0  0  0
   25.3060   10.6960   30.0150 H   0  0  0  0  0  0  0  0  0  0  0  0
   23.2070   12.1940   29.8000 H   0  0  0  0  0  0  0  0  0  0  0  0
   22.8970   10.4380   29.3160 H   0  0  0  0  0  0  0  0  0  0  0  0
   19.5770    6.8710   32.5310 H   0  0  0  0  0  0  0  0  0  0  0  0
   18.1290    9.9780   33.8180 H   0  0  0  0  0  0  0  0  0  0  0  0
   18.0180    8.2220   33.7810 H   0  0  0  0  0  0  0  0  0  0  0  0
   22.7330    6.7070   30.4050 H   0  0  0  0  0  0  0  0  0  0  0  0
   21.3770    3.3710   29.8490 H   0  0  0  0  0  0  0  0  0  0  0  0
   22.1660    4.7590   28.9740 H   0  0  0  0  0  0  0  0  0  0  0  0
   25.6100    7.2020   30.2940 H   0  0  0  0  0  0  0  0  0  0  0  0
   26.0800    6.3380   28.7360 H   0  0  0  0  0  0  0  0  0  0  0  0
   24.7270    7.5840   28.7310 H   0  0  0  0  0  0  0  0  0  0  0  0
   26.5810    5.0510   30.6640 H   0  0  0  0  0  0  0  0  0  0  0  0
   22.6140    2.1360   31.5260 H   0  0  0  0  0  0  0  0  0  0  0  0
   24.5510   -0.6000   33.0740 H   0  0  0  0  0  0  0  0  0  0  0  0
   23.0540    0.4520   32.9430 H   0  0  0  0  0  0  0  0  0  0  0  0
   23.9710   -0.0520   31.4250 H   0  0  0  0  0  0  0  0  0  0  0  0
   27.9390    3.3740   31.5860 H   0  0  0  0  0  0  0  0  0  0  0  0
   29.2180    1.8270   34.6230 H   0  0  0  0  0  0  0  0  0  0  0  0
   29.4800    1.6930   32.8400 H   0  0  0  0  0  0  0  0  0  0  0  0
   29.4640    3.3150   33.6270 H   0  0  0  0  0  0  0  0  0  0  0  0
  1  2  1  0  0  0  0
  1 31  1  0  0  0  0
  1 32  1  0  0  0  0
  1 33  1  0  0  0  0
  2  3  1  0  0  0  0
  2 34  1  0  0  0  0
  2 35  1  0  0  0  0
  3  4  1  0  0  0  0
  4 10  2  0  0  0  0
  4  5  1  0  0  0  0
  5  6  2  0  0  0  0
  6  7  1  0  0  0  0
  6 13  1  0  0  0  0
  7  8  2  0  0  0  0
  7 36  1  0  0  0  0
  8  9  1  0  0  0  0
  8 10  1  0  0  0  0
  9 37  1  0  0  0  0
  9 38  1  0  0  0  0
 10 11  1  0  0  0  0
 11 12  3  0  0  0  0
 13 14  1  0  0  0  0
 13 39  1  0  0  0  0
 14 15  2  0  0  0  0
 14 16  1  0  0  0  0
 16 17  1  0  0  0  0
 16 40  1  0  0  0  0
 16 41  1  0  0  0  0
 17 24  2  0  0  0  0
 17 18  1  0  0  0  0
 18 19  1  0  0  0  0
 18 21  2  0  0  0  0
 19 20  1  0  0  0  0
 20 42  1  0  0  0  0
 20 43  1  0  0  0  0
 20 44  1  0  0  0  0
 21 22  1  0  0  0  0
 21 45  1  0  0  0  0
 22 23  2  0  0  0  0
 22 27  1  0  0  0  0
 23 24  1  0  0  0  0
 23 25  1  0  0  0  0
 24 46  1  0  0  0  0
 25 26  1  0  0  0  0
 26 47  1  0  0  0  0
 26 48  1  0  0  0  0
 26 49  1  0  0  0  0
 27 28  1  0  0  0  0
 27 50  1  0  0  0  0
 28 29  2  0  0  0  0
 28 30  1  0  0  0  0
 30 51  1  0  0  0  0
 30 52  1  0  0  0  0
 30 53  1  0  0  0  0
M  END
$$$$
