CAT-24
 OpenBabel02232411143D
Structure written by MMmdl.
 47 50  0  0  1  0  0  0  0  0999 V2000
   15.4070    5.1390    2.4890 C   0  0  0  0  0  0  0  0  0  0  0  0
   15.2520    4.7060    1.1370 C   0  0  0  0  0  0  0  0  0  0  0  0
   15.1430    4.3340   -0.0090 C   0  0  0  0  0  0  0  0  0  0  0  0
   14.9980    3.7660   -1.2900 C   0  0  0  0  0  0  0  0  0  0  0  0
   14.4430    4.4740   -2.3840 C   0  0  0  0  0  0  0  0  0  0  0  0
   14.2500    3.8890   -3.5900 N   0  0  0  0  0  0  0  0  0  0  0  0
   14.5620    2.5780   -3.7450 C   0  0  0  0  0  0  0  0  0  0  0  0
   15.1000    1.7900   -2.7010 C   0  0  0  0  0  0  0  0  0  0  0  0
   15.2800    0.3330   -2.8470 C   0  0  0  0  0  0  0  0  0  0  0  0
   15.5460   -0.2640   -4.0920 C   0  0  0  0  0  0  0  0  0  0  0  0
   15.5440   -1.6540   -4.2120 C   0  0  0  0  0  0  0  0  0  0  0  0
   15.3120   -2.4760   -3.1040 C   0  0  0  0  0  0  0  0  0  0  0  0
   15.1230   -1.8960   -1.8450 C   0  0  0  0  0  0  0  0  0  0  0  0
   14.7820   -2.7190   -0.6240 C   0  0  1  0  0  0  0  0  0  0  0  0
   15.2900   -4.1280   -0.3720 C   0  0  0  0  0  0  0  0  0  0  0  0
   14.8720   -5.3190   -1.1990 C   0  0  0  0  0  0  0  0  0  0  0  0
   16.3200   -4.8770   -1.2000 C   0  0  0  0  0  0  0  0  0  0  0  0
   15.1370   -1.9930    0.6660 N   0  3  0  0  0  0  0  0  0  0  0  0
   14.0660   -2.2230    1.5650 C   0  0  0  0  0  0  0  0  0  0  0  0
   14.2500   -2.2910    2.9070 N   0  0  0  0  0  0  0  0  0  0  0  0
   12.8970   -2.4940    0.8750 N   0  0  0  0  0  0  0  0  0  0  0  0
   11.5800   -2.6810    1.5200 C   0  0  0  0  0  0  0  0  0  0  0  0
   13.2140   -2.7810   -0.5480 C   0  0  0  0  0  0  0  0  0  0  0  0
   12.3650   -2.9790   -1.3520 O   0  0  0  0  0  0  0  0  0  0  0  0
   15.0980   -0.4970   -1.7280 C   0  0  0  0  0  0  0  0  0  0  0  0
   15.3590    2.4220   -1.4760 C   0  0  0  0  0  0  0  0  0  0  0  0
   15.1440    6.2190    2.5950 H   0  0  0  0  0  0  0  0  0  0  0  0
   14.7550    4.5220    3.1650 H   0  0  0  0  0  0  0  0  0  0  0  0
   16.4650    4.9850    2.8380 H   0  0  0  0  0  0  0  0  0  0  0  0
   14.1370    5.5290   -2.2800 H   0  0  0  0  0  0  0  0  0  0  0  0
   14.3570    2.1410   -4.7370 H   0  0  0  0  0  0  0  0  0  0  0  0
   15.7540    0.3460   -4.9780 H   0  0  0  0  0  0  0  0  0  0  0  0
   15.7120   -2.1100   -5.1910 H   0  0  0  0  0  0  0  0  0  0  0  0
   15.2640   -3.5560   -3.2440 H   0  0  0  0  0  0  0  0  0  0  0  0
   15.3630   -4.3320    0.7170 H   0  0  0  0  0  0  0  0  0  0  0  0
   14.5880   -6.2370   -0.6620 H   0  0  0  0  0  0  0  0  0  0  0  0
   14.2610   -5.1470   -2.0920 H   0  0  0  0  0  0  0  0  0  0  0  0
   16.7530   -4.4110   -2.0910 H   0  0  0  0  0  0  0  0  0  0  0  0
   17.0620   -5.4660   -0.6410 H   0  0  0  0  0  0  0  0  0  0  0  0
   16.1000   -2.2360    1.0490 H   0  0  0  0  0  0  0  0  0  0  0  0
   13.5220   -1.9640    3.5860 H   0  0  0  0  0  0  0  0  0  0  0  0
   11.0390   -3.5300    1.0200 H   0  0  0  0  0  0  0  0  0  0  0  0
   11.7010   -2.9330    2.6080 H   0  0  0  0  0  0  0  0  0  0  0  0
   10.9790   -1.7380    1.4220 H   0  0  0  0  0  0  0  0  0  0  0  0
   14.9230   -0.0580   -0.7430 H   0  0  0  0  0  0  0  0  0  0  0  0
   15.8220    1.8720   -0.6490 H   0  0  0  0  0  0  0  0  0  0  0  0
   15.2260   -2.1440    3.2930 H   0  0  0  0  0  0  0  0  0  0  0  0
  1  2  1  0  0  0  0
  1 27  1  0  0  0  0
  1 28  1  0  0  0  0
  1 29  1  0  0  0  0
  2  3  3  0  0  0  0
  3  4  1  0  0  0  0
  4  5  2  0  0  0  0
  4 26  1  0  0  0  0
  5  6  1  0  0  0  0
  5 30  1  0  0  0  0
  6  7  2  0  0  0  0
  7  8  1  0  0  0  0
  7 31  1  0  0  0  0
  8  9  1  0  0  0  0
  8 26  2  0  0  0  0
  9 10  2  0  0  0  0
  9 25  1  0  0  0  0
 10 11  1  0  0  0  0
 10 32  1  0  0  0  0
 11 12  2  0  0  0  0
 11 33  1  0  0  0  0
 12 13  1  0  0  0  0
 12 34  1  0  0  0  0
 13 25  2  0  0  0  0
 14 13  1  6  0  0  0
 14 15  1  0  0  0  0
 14 18  1  0  0  0  0
 14 23  1  0  0  0  0
 15 16  1  0  0  0  0
 15 17  1  0  0  0  0
 15 35  1  0  0  0  0
 16 17  1  0  0  0  0
 16 36  1  0  0  0  0
 16 37  1  0  0  0  0
 17 38  1  0  0  0  0
 17 39  1  0  0  0  0
 18 19  2  0  0  0  0
 18 40  1  0  0  0  0
 19 20  1  0  0  0  0
 19 21  1  0  0  0  0
 20 41  1  0  0  0  0
 20 47  1  0  0  0  0
 21 22  1  0  0  0  0
 21 23  1  0  0  0  0
 22 42  1  0  0  0  0
 22 43  1  0  0  0  0
 22 44  1  0  0  0  0
 23 24  2  0  0  0  0
 25 45  1  0  0  0  0
 26 46  1  0  0  0  0
M  CHG  1  18   1
M  END
$$$$
