p38a_2j
 OpenBabel02232411163D
Structure written by MMmdl.
 48 51  0  0  0  0  0  0  0  0999 V2000
   32.6840   39.9410   27.2960 C   0  0  0  0  0  0  0  0  0  0  0  0
   32.6320   39.3180   28.6960 C   0  0  0  0  0  0  0  0  0  0  0  0
   34.9450   38.6310   28.5800 C   0  0  0  0  0  0  0  0  0  0  0  0
   35.1160   39.2240   27.1760 C   0  0  0  0  0  0  0  0  0  0  0  0
   38.0380   36.3580   17.4070 C   0  0  0  0  0  0  0  0  0  0  0  0
   33.9290   39.3330   29.3350 O   0  0  0  0  0  0  0  0  0  0  0  0
   34.4350   35.2250   21.3970 C   0  0  0  0  0  0  0  0  0  0  0  0
   37.0470   35.9310   18.2930 C   0  0  0  0  0  0  0  0  0  0  0  0
   34.1550   39.3160   23.9550 C   0  0  0  0  0  0  0  0  0  0  0  0
   33.7560   39.2290   26.4430 C   0  0  0  0  0  0  0  0  0  0  0  0
   34.5050   38.0870   21.5130 C   0  0  0  0  0  0  0  0  0  0  0  0
   34.6310   37.4090   20.2570 C   0  0  0  0  0  0  0  0  0  0  0  0
   36.3030   36.4790   15.6730 C   0  0  0  0  0  0  0  0  0  0  0  0
   35.3500   36.0460   16.5980 C   0  0  0  0  0  0  0  0  0  0  0  0
   34.3610   37.3280   22.7130 C   0  0  0  0  0  0  0  0  0  0  0  0
   34.4910   39.5040   21.6390 C   0  0  0  0  0  0  0  0  0  0  0  0
   34.5890   36.0530   20.1910 C   0  0  0  0  0  0  0  0  0  0  0  0
   35.6960   35.7710   17.9310 C   0  0  0  0  0  0  0  0  0  0  0  0
   34.2590   35.1560   23.9260 C   0  0  0  0  0  0  0  0  0  0  0  0
   37.4180   35.6580   19.5420 F   0  0  0  0  0  0  0  0  0  0  0  0
   34.6340   35.3030   18.8880 C   0  0  0  0  0  0  0  0  0  0  0  0
   34.3270   40.1290   22.8110 N   0  0  0  0  0  0  0  0  0  0  0  0
   34.3590   34.0100   21.4350 O   0  0  0  0  0  0  0  0  0  0  0  0
   34.3690   35.9330   22.6600 N   0  0  0  0  0  0  0  0  0  0  0  0
   34.2010   37.9370   23.9350 N   0  0  0  0  0  0  0  0  0  0  0  0
   33.8730   39.9510   25.1390 N   0  0  0  0  0  0  0  0  0  0  0  0
   31.6860   39.8430   26.8060 H   0  0  0  0  0  0  0  0  0  0  0  0
   32.9250   41.0270   27.3840 H   0  0  0  0  0  0  0  0  0  0  0  0
   32.0190   39.9390   29.3900 H   0  0  0  0  0  0  0  0  0  0  0  0
   32.2600   38.2670   28.6530 H   0  0  0  0  0  0  0  0  0  0  0  0
   34.6720   37.5510   28.5270 H   0  0  0  0  0  0  0  0  0  0  0  0
   35.8550   38.7930   29.2020 H   0  0  0  0  0  0  0  0  0  0  0  0
   35.5100   40.2650   27.2500 H   0  0  0  0  0  0  0  0  0  0  0  0
   35.8490   38.6070   26.6050 H   0  0  0  0  0  0  0  0  0  0  0  0
   39.0770   36.5060   17.7170 H   0  0  0  0  0  0  0  0  0  0  0  0
   33.4290   38.1680   26.2500 H   0  0  0  0  0  0  0  0  0  0  0  0
   34.7520   38.0150   19.3530 H   0  0  0  0  0  0  0  0  0  0  0  0
   36.0030   36.6990   14.6480 H   0  0  0  0  0  0  0  0  0  0  0  0
   34.3130   35.9330   16.2660 H   0  0  0  0  0  0  0  0  0  0  0  0
   34.6110   40.1360   20.7410 H   0  0  0  0  0  0  0  0  0  0  0  0
   35.0720   35.4620   24.6370 H   0  0  0  0  0  0  0  0  0  0  0  0
   33.2670   35.3520   24.4160 H   0  0  0  0  0  0  0  0  0  0  0  0
   34.3510   34.0590   23.7120 H   0  0  0  0  0  0  0  0  0  0  0  0
   33.9300   40.9860   25.2010 H   0  0  0  0  0  0  0  0  0  0  0  0
   34.7880   34.2080   19.0830 H   0  0  0  0  0  0  0  0  0  0  0  0
   33.6200   35.4150   18.4050 H   0  0  0  0  0  0  0  0  0  0  0  0
   37.6210   36.6390   16.1030 C   0  0  0  0  0  0  0  0  0  0  0  0
   38.5130   37.1170   15.2380 F   0  0  0  0  0  0  0  0  0  0  0  0
  1  2  1  0  0  0  0
  1 10  1  0  0  0  0
  1 27  1  0  0  0  0
  1 28  1  0  0  0  0
  2  6  1  0  0  0  0
  2 29  1  0  0  0  0
  2 30  1  0  0  0  0
  3  4  1  0  0  0  0
  3  6  1  0  0  0  0
  3 31  1  0  0  0  0
  3 32  1  0  0  0  0
  4 10  1  0  0  0  0
  4 33  1  0  0  0  0
  4 34  1  0  0  0  0
  5  8  2  0  0  0  0
  5 35  1  0  0  0  0
  5 47  1  0  0  0  0
  7 17  1  0  0  0  0
  7 23  2  0  0  0  0
  7 24  1  0  0  0  0
  8 18  1  0  0  0  0
  8 20  1  0  0  0  0
  9 22  2  0  0  0  0
  9 25  1  0  0  0  0
  9 26  1  0  0  0  0
 10 26  1  0  0  0  0
 10 36  1  0  0  0  0
 11 12  1  0  0  0  0
 11 15  1  0  0  0  0
 11 16  2  0  0  0  0
 12 17  2  0  0  0  0
 12 37  1  0  0  0  0
 13 14  1  0  0  0  0
 13 38  1  0  0  0  0
 13 47  2  0  0  0  0
 14 18  2  0  0  0  0
 14 39  1  0  0  0  0
 15 24  1  0  0  0  0
 15 25  2  0  0  0  0
 16 22  1  0  0  0  0
 16 40  1  0  0  0  0
 17 21  1  0  0  0  0
 18 21  1  0  0  0  0
 19 24  1  0  0  0  0
 19 41  1  0  0  0  0
 19 42  1  0  0  0  0
 19 43  1  0  0  0  0
 21 45  1  0  0  0  0
 21 46  1  0  0  0  0
 26 44  1  0  0  0  0
 47 48  1  0  0  0  0
M  END
$$$$
