p38a_2m
 OpenBabel02232411163D
Structure written by MMmdl.
 50 54  0  0  0  0  0  0  0  0999 V2000
   38.2860   36.5650   17.1210 C   0  0  0  0  0  0  0  0  0  0  0  0
   34.5520   35.0800   21.1490 C   0  0  0  0  0  0  0  0  0  0  0  0
   37.4870   36.1020   18.1620 C   0  0  0  0  0  0  0  0  0  0  0  0
   33.9590   39.1390   23.7260 C   0  0  0  0  0  0  0  0  0  0  0  0
   34.6080   37.9630   21.3170 C   0  0  0  0  0  0  0  0  0  0  0  0
   35.0020   37.3190   20.0940 C   0  0  0  0  0  0  0  0  0  0  0  0
   37.6540   36.7430   15.8820 C   0  0  0  0  0  0  0  0  0  0  0  0
   36.3060   36.4580   15.6570 C   0  0  0  0  0  0  0  0  0  0  0  0
   35.5270   35.9790   16.7150 C   0  0  0  0  0  0  0  0  0  0  0  0
   34.2540   37.1790   22.4550 C   0  0  0  0  0  0  0  0  0  0  0  0
   34.5790   39.3750   21.4760 C   0  0  0  0  0  0  0  0  0  0  0  0
   35.0040   35.9680   20.0430 C   0  0  0  0  0  0  0  0  0  0  0  0
   36.1240   35.7930   17.9650 C   0  0  0  0  0  0  0  0  0  0  0  0
   38.0020   35.9500   19.3750 F   0  0  0  0  0  0  0  0  0  0  0  0
   35.3860   35.1600   18.9730 O   0  0  0  0  0  0  0  0  0  0  0  0
   34.2700   39.9750   22.6350 N   0  0  0  0  0  0  0  0  0  0  0  0
   34.4650   33.8750   21.0810 O   0  0  0  0  0  0  0  0  0  0  0  0
   34.2070   35.7730   22.3650 N   0  0  0  0  0  0  0  0  0  0  0  0
   33.9580   37.7580   23.6610 N   0  0  0  0  0  0  0  0  0  0  0  0
   33.5710   39.7420   24.9000 N   0  0  0  0  0  0  0  0  0  0  0  0
   39.3410   36.8140   17.2700 H   0  0  0  0  0  0  0  0  0  0  0  0
   35.3010   37.9470   19.2520 H   0  0  0  0  0  0  0  0  0  0  0  0
   35.8480   36.6190   14.6790 H   0  0  0  0  0  0  0  0  0  0  0  0
   34.4640   35.7680   16.5600 H   0  0  0  0  0  0  0  0  0  0  0  0
   34.8140   40.0290   20.6190 H   0  0  0  0  0  0  0  0  0  0  0  0
   33.6870   40.7680   25.0130 H   0  0  0  0  0  0  0  0  0  0  0  0
   38.3670   37.2480   14.8790 F   0  0  0  0  0  0  0  0  0  0  0  0
   32.1410   38.9790   28.3570 C   0  0  0  0  0  0  0  0  0  0  0  0
   32.2820   39.6760   26.9980 C   0  0  0  0  0  0  0  0  0  0  0  0
   33.3790   38.9740   26.1680 C   0  0  0  0  0  0  0  0  0  0  0  0
   34.6990   38.9090   26.9680 C   0  0  0  0  0  0  0  0  0  0  0  0
   34.4450   38.2570   28.3330 C   0  0  0  0  0  0  0  0  0  0  0  0
   33.4000   38.9390   29.0660 O   0  0  0  0  0  0  0  0  0  0  0  0
   31.7590   37.9390   28.2340 H   0  0  0  0  0  0  0  0  0  0  0  0
   31.4990   39.5690   29.0500 H   0  0  0  0  0  0  0  0  0  0  0  0
   32.5490   40.7480   27.1520 H   0  0  0  0  0  0  0  0  0  0  0  0
   31.3110   39.6290   26.4500 H   0  0  0  0  0  0  0  0  0  0  0  0
   33.0390   37.9300   25.9160 H   0  0  0  0  0  0  0  0  0  0  0  0
   35.4510   38.3020   26.4100 H   0  0  0  0  0  0  0  0  0  0  0  0
   35.1090   39.9380   27.1070 H   0  0  0  0  0  0  0  0  0  0  0  0
   34.1610   37.1850   28.2160 H   0  0  0  0  0  0  0  0  0  0  0  0
   35.3240   38.3760   29.0080 H   0  0  0  0  0  0  0  0  0  0  0  0
   33.8370   35.0010   23.5710 C   0  0  0  0  0  0  0  0  0  0  0  0
   32.8270   33.8650   23.4830 C   0  0  0  0  0  0  0  0  0  0  0  0
   32.4440   35.1570   24.1750 C   0  0  0  0  0  0  0  0  0  0  0  0
   34.6970   34.9060   24.2630 H   0  0  0  0  0  0  0  0  0  0  0  0
   32.3410   33.6150   22.5320 H   0  0  0  0  0  0  0  0  0  0  0  0
   33.0180   32.9720   24.1000 H   0  0  0  0  0  0  0  0  0  0  0  0
   31.7050   35.8210   23.7080 H   0  0  0  0  0  0  0  0  0  0  0  0
   32.3680   35.1820   25.2740 H   0  0  0  0  0  0  0  0  0  0  0  0
  1  3  2  0  0  0  0
  1  7  1  0  0  0  0
  1 21  1  0  0  0  0
  2 12  1  0  0  0  0
  2 17  2  0  0  0  0
  2 18  1  0  0  0  0
  3 13  1  0  0  0  0
  3 14  1  0  0  0  0
  4 16  2  0  0  0  0
  4 19  1  0  0  0  0
  4 20  1  0  0  0  0
  5  6  1  0  0  0  0
  5 10  1  0  0  0  0
  5 11  2  0  0  0  0
  6 12  2  0  0  0  0
  6 22  1  0  0  0  0
  7  8  2  0  0  0  0
  7 27  1  0  0  0  0
  8  9  1  0  0  0  0
  8 23  1  0  0  0  0
  9 13  2  0  0  0  0
  9 24  1  0  0  0  0
 10 18  1  0  0  0  0
 10 19  2  0  0  0  0
 11 16  1  0  0  0  0
 11 25  1  0  0  0  0
 12 15  1  0  0  0  0
 13 15  1  0  0  0  0
 18 43  1  0  0  0  0
 20 26  1  0  0  0  0
 20 30  1  0  0  0  0
 28 29  1  0  0  0  0
 28 33  1  0  0  0  0
 28 34  1  0  0  0  0
 28 35  1  0  0  0  0
 29 30  1  0  0  0  0
 29 36  1  0  0  0  0
 29 37  1  0  0  0  0
 30 31  1  0  0  0  0
 30 38  1  0  0  0  0
 31 32  1  0  0  0  0
 31 39  1  0  0  0  0
 31 40  1  0  0  0  0
 32 33  1  0  0  0  0
 32 41  1  0  0  0  0
 32 42  1  0  0  0  0
 43 44  1  0  0  0  0
 43 45  1  0  0  0  0
 43 46  1  0  0  0  0
 44 45  1  0  0  0  0
 44 47  1  0  0  0  0
 44 48  1  0  0  0  0
 45 49  1  0  0  0  0
 45 50  1  0  0  0  0
M  END
$$$$
