1oiu
 OpenBabel02232411153D
Structure written by MMmdl.
 50 53  0  0  0  0  0  0  0  0999 V2000
    1.9780   28.7800    6.7670 C   0  0  0  0  0  0  0  0  0  0  0  0
   -1.4730   31.4280    7.9030 C   0  0  0  0  0  0  0  0  0  0  0  0
   -0.0410   25.9560    8.9160 C   0  0  0  0  0  0  0  0  0  0  0  0
   -0.8510   25.2790   10.0290 C   0  0  0  0  0  0  0  0  0  0  0  0
   -0.7160   23.7510    9.8350 C   0  0  0  0  0  0  0  0  0  0  0  0
   -1.3860   22.9770   10.9790 C   0  0  0  0  0  0  0  0  0  0  0  0
   -0.8540   23.4220   12.3500 C   0  0  0  0  0  0  0  0  0  0  0  0
   -1.0300   24.9360   12.5470 C   0  0  0  0  0  0  0  0  0  0  0  0
   -0.3500   25.7240   11.4170 C   0  0  0  0  0  0  0  0  0  0  0  0
    5.1870   25.3300    5.4680 C   0  0  0  0  0  0  0  0  0  0  0  0
    5.1120   24.6310    6.6790 C   0  0  0  0  0  0  0  0  0  0  0  0
    4.4410   25.1910    7.7700 C   0  0  0  0  0  0  0  0  0  0  0  0
    3.8060   26.4290    7.6590 C   0  0  0  0  0  0  0  0  0  0  0  0
    1.2610   27.8460    7.5120 N   0  0  0  0  0  0  0  0  0  0  0  0
    0.0640   28.1940    8.0490 C   0  0  0  0  0  0  0  0  0  0  0  0
   -0.6300   27.3140    8.7860 O   0  0  0  0  0  0  0  0  0  0  0  0
   -0.4510   29.5030    7.8540 C   0  0  0  0  0  0  0  0  0  0  0  0
   -1.5930   30.1650    8.3190 N   0  0  0  0  0  0  0  0  0  0  0  0
   -0.2570   31.6460    7.1630 N   0  0  0  0  0  0  0  0  0  0  0  0
    0.3930   30.4160    7.1000 C   0  0  0  0  0  0  0  0  0  0  0  0
    1.5860   30.0840    6.5080 N   0  0  0  0  0  0  0  0  0  0  0  0
    3.1870   28.3690    6.2200 N   0  0  0  0  0  0  0  0  0  0  0  0
    3.8390   27.1090    6.4300 C   0  0  0  0  0  0  0  0  0  0  0  0
    4.5660   26.5710    5.3400 C   0  0  0  0  0  0  0  0  0  0  0  0
   -2.1680   32.2420    8.0880 H   0  0  0  0  0  0  0  0  0  0  0  0
    1.0350   26.0490    9.1840 H   0  0  0  0  0  0  0  0  0  0  0  0
   -0.1860   25.4710    7.9300 H   0  0  0  0  0  0  0  0  0  0  0  0
   -1.9280   25.5620    9.9380 H   0  0  0  0  0  0  0  0  0  0  0  0
   -1.1910   23.4590    8.8720 H   0  0  0  0  0  0  0  0  0  0  0  0
    0.3670   23.4750    9.8010 H   0  0  0  0  0  0  0  0  0  0  0  0
   -2.4820   23.1540   10.9450 H   0  0  0  0  0  0  0  0  0  0  0  0
   -1.1920   21.8860   10.8500 H   0  0  0  0  0  0  0  0  0  0  0  0
   -1.3990   22.8760   13.1530 H   0  0  0  0  0  0  0  0  0  0  0  0
    0.2300   23.1690   12.4140 H   0  0  0  0  0  0  0  0  0  0  0  0
   -2.1160   25.1820   12.5850 H   0  0  0  0  0  0  0  0  0  0  0  0
   -0.5690   25.2330   13.5170 H   0  0  0  0  0  0  0  0  0  0  0  0
    0.7520   25.5600   11.4900 H   0  0  0  0  0  0  0  0  0  0  0  0
   -0.5550   26.8100   11.5530 H   0  0  0  0  0  0  0  0  0  0  0  0
    5.5610   23.6410    6.7930 H   0  0  0  0  0  0  0  0  0  0  0  0
    4.3880   24.6410    8.7140 H   0  0  0  0  0  0  0  0  0  0  0  0
    3.2780   26.8390    8.5220 H   0  0  0  0  0  0  0  0  0  0  0  0
    0.0100   32.5270    6.7000 H   0  0  0  0  0  0  0  0  0  0  0  0
    3.7070   29.0370    5.6080 H   0  0  0  0  0  0  0  0  0  0  0  0
    4.6180   27.1420    4.4070 H   0  0  0  0  0  0  0  0  0  0  0  0
    5.9710   24.5640    4.1110 S   0  0  0  0  0  0  0  0  0  0  0  0
    6.2350   25.4950    3.0060 O   0  0  0  0  0  0  0  0  0  0  0  0
    7.1570   23.8030    4.5360 O   0  0  0  0  0  0  0  0  0  0  0  0
    4.7500   23.4910    3.5790 N   0  0  0  0  0  0  0  0  0  0  0  0
    4.7370   23.2010    2.5880 H   0  0  0  0  0  0  0  0  0  0  0  0
    4.4840   22.7100    4.2010 H   0  0  0  0  0  0  0  0  0  0  0  0
  1 14  2  0  0  0  0
  1 21  1  0  0  0  0
  1 22  1  0  0  0  0
  2 18  2  0  0  0  0
  2 19  1  0  0  0  0
  2 25  1  0  0  0  0
  3  4  1  0  0  0  0
  3 16  1  0  0  0  0
  3 26  1  0  0  0  0
  3 27  1  0  0  0  0
  4  5  1  0  0  0  0
  4  9  1  0  0  0  0
  4 28  1  0  0  0  0
  5  6  1  0  0  0  0
  5 29  1  0  0  0  0
  5 30  1  0  0  0  0
  6  7  1  0  0  0  0
  6 31  1  0  0  0  0
  6 32  1  0  0  0  0
  7  8  1  0  0  0  0
  7 33  1  0  0  0  0
  7 34  1  0  0  0  0
  8  9  1  0  0  0  0
  8 35  1  0  0  0  0
  8 36  1  0  0  0  0
  9 37  1  0  0  0  0
  9 38  1  0  0  0  0
 10 11  2  0  0  0  0
 10 24  1  0  0  0  0
 10 45  1  0  0  0  0
 11 12  1  0  0  0  0
 11 39  1  0  0  0  0
 12 13  2  0  0  0  0
 12 40  1  0  0  0  0
 13 23  1  0  0  0  0
 13 41  1  0  0  0  0
 14 15  1  0  0  0  0
 15 16  1  0  0  0  0
 15 17  2  0  0  0  0
 17 18  1  0  0  0  0
 17 20  1  0  0  0  0
 19 20  1  0  0  0  0
 19 42  1  0  0  0  0
 20 21  2  0  0  0  0
 22 23  1  0  0  0  0
 22 43  1  0  0  0  0
 23 24  2  0  0  0  0
 24 44  1  0  0  0  0
 45 46  2  0  0  0  0
 45 47  2  0  0  0  0
 45 48  1  0  0  0  0
 48 49  1  0  0  0  0
 48 50  1  0  0  0  0
M  END
$$$$
