CAT-17h
 OpenBabel02232411143D
Structure written by MMmdl.
 42 45  0  0  1  0  0  0  0  0999 V2000
   11.6450   -2.2990    1.2500 C   0  0  0  0  0  0  0  0  0  0  0  0
   12.9900   -2.3890    0.6450 N   0  0  0  0  0  0  0  0  0  0  0  0
   14.1740   -2.3730    1.3770 C   0  0  0  0  0  0  0  0  0  0  0  0
   14.3080   -2.4590    2.7310 N   0  0  0  0  0  0  0  0  0  0  0  0
   15.2710   -2.3310    0.5070 N   0  3  0  0  0  0  0  0  0  0  0  0
   14.8310   -2.6570   -0.9010 C   0  0  1  0  0  0  0  0  0  0  0  0
   15.4320   -1.6360   -1.8430 C   0  0  0  0  0  0  0  0  0  0  0  0
   16.3080   -2.0080   -2.8690 C   0  0  0  0  0  0  0  0  0  0  0  0
   16.7940   -1.0310   -3.7450 C   0  0  0  0  0  0  0  0  0  0  0  0
   16.4380    0.3100   -3.5880 C   0  0  0  0  0  0  0  0  0  0  0  0
   15.6070    0.6980   -2.5240 C   0  0  0  0  0  0  0  0  0  0  0  0
   15.2600    2.1100   -2.2730 C   0  0  0  0  0  0  0  0  0  0  0  0
   14.8300    2.9720   -3.3060 C   0  0  0  0  0  0  0  0  0  0  0  0
   14.4000    4.2380   -3.0670 N   0  0  0  0  0  0  0  0  0  0  0  0
   14.3730    4.6940   -1.7910 C   0  0  0  0  0  0  0  0  0  0  0  0
   14.8330    3.9010   -0.7200 C   0  0  0  0  0  0  0  0  0  0  0  0
   14.7640    4.4890    0.8850 Cl  0  0  0  0  0  0  0  0  0  0  0  0
   15.2980    2.6100   -0.9600 C   0  0  0  0  0  0  0  0  0  0  0  0
   15.0900   -0.2870   -1.6690 C   0  0  0  0  0  0  0  0  0  0  0  0
   15.0520   -4.1150   -1.2700 C   0  0  0  0  0  0  0  0  0  0  0  0
   16.2630   -4.8720   -0.7530 C   0  0  0  0  0  0  0  0  0  0  0  0
   14.8880   -5.2160   -0.2280 C   0  0  0  0  0  0  0  0  0  0  0  0
   13.2780   -2.4780   -0.8030 C   0  0  0  0  0  0  0  0  0  0  0  0
   12.4190   -2.4280   -1.6220 O   0  0  0  0  0  0  0  0  0  0  0  0
   10.9410   -2.9630    0.6790 H   0  0  0  0  0  0  0  0  0  0  0  0
   11.6670   -2.6430    2.3180 H   0  0  0  0  0  0  0  0  0  0  0  0
   11.2890   -1.2350    1.2040 H   0  0  0  0  0  0  0  0  0  0  0  0
   13.5850   -2.0600    3.3800 H   0  0  0  0  0  0  0  0  0  0  0  0
   16.2020   -2.6710    0.8740 H   0  0  0  0  0  0  0  0  0  0  0  0
   16.6140   -3.0490   -2.9840 H   0  0  0  0  0  0  0  0  0  0  0  0
   17.4660   -1.3230   -4.5600 H   0  0  0  0  0  0  0  0  0  0  0  0
   16.8130    1.0540   -4.2960 H   0  0  0  0  0  0  0  0  0  0  0  0
   14.8140    2.6310   -4.3550 H   0  0  0  0  0  0  0  0  0  0  0  0
   13.9620    5.7030   -1.6220 H   0  0  0  0  0  0  0  0  0  0  0  0
   15.6750    1.9860   -0.1450 H   0  0  0  0  0  0  0  0  0  0  0  0
   14.4210   -0.0070   -0.8550 H   0  0  0  0  0  0  0  0  0  0  0  0
   14.7110   -4.3340   -2.2980 H   0  0  0  0  0  0  0  0  0  0  0  0
   16.7890   -5.5440   -1.4300 H   0  0  0  0  0  0  0  0  0  0  0  0
   16.9730   -4.3610   -0.1000 H   0  0  0  0  0  0  0  0  0  0  0  0
   14.6380   -4.9490    0.8060 H   0  0  0  0  0  0  0  0  0  0  0  0
   14.4030   -6.1520   -0.5360 H   0  0  0  0  0  0  0  0  0  0  0  0
   15.2840   -2.3930    3.1390 H   0  0  0  0  0  0  0  0  0  0  0  0
  1  2  1  0  0  0  0
  1 25  1  0  0  0  0
  1 26  1  0  0  0  0
  1 27  1  0  0  0  0
  2  3  1  0  0  0  0
  2 23  1  0  0  0  0
  3  4  1  0  0  0  0
  3  5  2  0  0  0  0
  4 28  1  0  0  0  0
  4 42  1  0  0  0  0
  5  6  1  0  0  0  0
  5 29  1  0  0  0  0
  6  7  1  6  0  0  0
  6 20  1  0  0  0  0
  6 23  1  0  0  0  0
  7  8  2  0  0  0  0
  7 19  1  0  0  0  0
  8  9  1  0  0  0  0
  8 30  1  0  0  0  0
  9 10  2  0  0  0  0
  9 31  1  0  0  0  0
 10 11  1  0  0  0  0
 10 32  1  0  0  0  0
 11 12  1  0  0  0  0
 11 19  2  0  0  0  0
 12 13  2  0  0  0  0
 12 18  1  0  0  0  0
 13 14  1  0  0  0  0
 13 33  1  0  0  0  0
 14 15  2  0  0  0  0
 15 16  1  0  0  0  0
 15 34  1  0  0  0  0
 16 17  1  0  0  0  0
 16 18  2  0  0  0  0
 18 35  1  0  0  0  0
 19 36  1  0  0  0  0
 20 21  1  0  0  0  0
 20 22  1  0  0  0  0
 20 37  1  0  0  0  0
 21 22  1  0  0  0  0
 21 38  1  0  0  0  0
 21 39  1  0  0  0  0
 22 40  1  0  0  0  0
 22 41  1  0  0  0  0
 23 24  2  0  0  0  0
M  CHG  1   5   1
M  END
$$$$
