p38a_3fmk
 OpenBabel02232411163D
Structure written by MMmdl.
 46 49  0  0  1  0  0  0  0  0999 V2000
   37.4290   36.0790   18.1940 C   0  0  0  0  0  0  0  0  0  0  0  0
   38.2460   36.5330   17.1630 C   0  0  0  0  0  0  0  0  0  0  0  0
   33.9650   34.9380   23.6400 C   0  0  0  0  0  0  0  0  0  0  0  0
   36.2810   36.4510   15.6760 C   0  0  0  0  0  0  0  0  0  0  0  0
   34.6690   39.3500   21.5870 C   0  0  0  0  0  0  0  0  0  0  0  0
   33.9280   38.8770   26.3680 C   0  0  1  0  0  0  0  0  0  0  0  0
   33.5130   39.8370   27.5250 C   0  0  0  0  0  0  0  0  0  0  0  0
   34.2570   39.0780   23.8800 C   0  0  0  0  0  0  0  0  0  0  0  0
   34.5480   35.0680   21.1870 C   0  0  0  0  0  0  0  0  0  0  0  0
   34.9740   35.9610   20.0780 C   0  0  0  0  0  0  0  0  0  0  0  0
   34.9970   37.3120   20.1520 C   0  0  0  0  0  0  0  0  0  0  0  0
   36.0630   35.7900   17.9830 C   0  0  0  0  0  0  0  0  0  0  0  0
   35.4840   35.9840   16.7260 C   0  0  0  0  0  0  0  0  0  0  0  0
   34.6810   37.9400   21.4050 C   0  0  0  0  0  0  0  0  0  0  0  0
   34.3880   37.1400   22.5490 C   0  0  0  0  0  0  0  0  0  0  0  0
   34.1080   39.6670   25.1120 N   0  0  0  0  0  0  0  0  0  0  0  0
   37.6300   36.7200   15.9170 C   0  0  0  0  0  0  0  0  0  0  0  0
   38.3610   37.2160   14.9220 F   0  0  0  0  0  0  0  0  0  0  0  0
   37.9320   35.9140   19.4110 F   0  0  0  0  0  0  0  0  0  0  0  0
   35.2960   35.1690   18.9770 O   0  0  0  0  0  0  0  0  0  0  0  0
   34.4010   33.8680   21.1090 O   0  0  0  0  0  0  0  0  0  0  0  0
   34.3040   35.7440   22.4330 N   0  0  0  0  0  0  0  0  0  0  0  0
   34.1840   37.7020   23.7840 N   0  0  0  0  0  0  0  0  0  0  0  0
   34.4670   39.9330   22.7770 N   0  0  0  0  0  0  0  0  0  0  0  0
   35.1760   38.0640   26.7130 C   0  0  0  0  0  0  0  0  0  0  0  0
   34.6500   40.5070   28.1970 N   0  0  0  0  0  0  0  0  0  0  0  0
   35.1530   40.0880   29.3930 N   0  0  0  0  0  0  0  0  0  0  0  0
   36.1970   40.9310   29.6340 C   0  0  0  0  0  0  0  0  0  0  0  0
   36.3040   41.8510   28.5560 N   0  0  0  0  0  0  0  0  0  0  0  0
   35.3670   41.5710   27.7070 N   0  0  0  0  0  0  0  0  0  0  0  0
   39.3020   36.7680   17.3230 H   0  0  0  0  0  0  0  0  0  0  0  0
   34.7500   35.0800   24.4300 H   0  0  0  0  0  0  0  0  0  0  0  0
   32.9770   35.2730   24.0610 H   0  0  0  0  0  0  0  0  0  0  0  0
   33.8980   33.8510   23.3750 H   0  0  0  0  0  0  0  0  0  0  0  0
   35.8370   36.6160   14.6920 H   0  0  0  0  0  0  0  0  0  0  0  0
   34.8280   40.0140   20.7200 H   0  0  0  0  0  0  0  0  0  0  0  0
   33.0510   38.1730   26.2180 H   0  0  0  0  0  0  0  0  0  0  0  0
   32.8070   40.6280   27.1410 H   0  0  0  0  0  0  0  0  0  0  0  0
   32.9540   39.2180   28.2920 H   0  0  0  0  0  0  0  0  0  0  0  0
   35.2630   37.9490   19.3050 H   0  0  0  0  0  0  0  0  0  0  0  0
   34.4200   35.7870   16.5590 H   0  0  0  0  0  0  0  0  0  0  0  0
   34.1010   40.7010   25.1980 H   0  0  0  0  0  0  0  0  0  0  0  0
   35.2920   37.2190   25.9900 H   0  0  0  0  0  0  0  0  0  0  0  0
   36.0930   38.6840   26.6860 H   0  0  0  0  0  0  0  0  0  0  0  0
   35.0530   37.6140   27.7280 H   0  0  0  0  0  0  0  0  0  0  0  0
   36.8470   40.9230   30.5080 H   0  0  0  0  0  0  0  0  0  0  0  0
  1  2  2  0  0  0  0
  1 12  1  0  0  0  0
  1 19  1  0  0  0  0
  2 17  1  0  0  0  0
  2 31  1  0  0  0  0
  3 22  1  0  0  0  0
  3 32  1  0  0  0  0
  3 33  1  0  0  0  0
  3 34  1  0  0  0  0
  4 13  1  0  0  0  0
  4 17  2  0  0  0  0
  4 35  1  0  0  0  0
  5 14  2  0  0  0  0
  5 24  1  0  0  0  0
  5 36  1  0  0  0  0
  6  7  1  0  0  0  0
  6 16  1  0  0  0  0
  6 25  1  0  0  0  0
  6 37  1  6  0  0  0
  7 26  1  0  0  0  0
  7 38  1  0  0  0  0
  7 39  1  0  0  0  0
  8 16  1  0  0  0  0
  8 23  1  0  0  0  0
  8 24  2  0  0  0  0
  9 10  1  0  0  0  0
  9 21  2  0  0  0  0
  9 22  1  0  0  0  0
 10 11  2  0  0  0  0
 10 20  1  0  0  0  0
 11 14  1  0  0  0  0
 11 40  1  0  0  0  0
 12 13  2  0  0  0  0
 12 20  1  0  0  0  0
 13 41  1  0  0  0  0
 14 15  1  0  0  0  0
 15 22  1  0  0  0  0
 15 23  2  0  0  0  0
 16 42  1  0  0  0  0
 17 18  1  0  0  0  0
 25 43  1  0  0  0  0
 25 44  1  0  0  0  0
 25 45  1  0  0  0  0
 26 27  1  0  0  0  0
 26 30  1  0  0  0  0
 27 28  2  0  0  0  0
 28 29  1  0  0  0  0
 28 46  1  0  0  0  0
 29 30  2  0  0  0  0
M  END
$$$$
