p38a_2f
 OpenBabel02232411163D
Structure written by MMmdl.
 46 49  0  0  0  0  0  0  0  0999 V2000
   33.9170   38.7680   27.1450 C   0  0  0  0  0  0  0  0  0  0  0  0
   33.3440   38.3210   28.4970 C   0  0  0  0  0  0  0  0  0  0  0  0
   31.0960   38.2180   27.6120 C   0  0  0  0  0  0  0  0  0  0  0  0
   31.5610   38.6740   26.2220 C   0  0  0  0  0  0  0  0  0  0  0  0
   37.8450   36.0690   17.4280 C   0  0  0  0  0  0  0  0  0  0  0  0
   32.1450   37.5320   28.3330 O   0  0  0  0  0  0  0  0  0  0  0  0
   34.2540   35.0880   21.6330 C   0  0  0  0  0  0  0  0  0  0  0  0
   37.0830   35.8100   18.5700 C   0  0  0  0  0  0  0  0  0  0  0  0
   33.7500   39.2980   23.9660 C   0  0  0  0  0  0  0  0  0  0  0  0
   32.8320   39.5330   26.3600 C   0  0  0  0  0  0  0  0  0  0  0  0
   34.4880   37.9580   21.6670 C   0  0  0  0  0  0  0  0  0  0  0  0
   34.8350   37.2390   20.4730 C   0  0  0  0  0  0  0  0  0  0  0  0
   37.3270   36.0290   16.1310 C   0  0  0  0  0  0  0  0  0  0  0  0
   35.9730   35.7180   15.9690 C   0  0  0  0  0  0  0  0  0  0  0  0
   35.1660   35.4370   17.0750 C   0  0  0  0  0  0  0  0  0  0  0  0
   34.0240   37.2600   22.8220 C   0  0  0  0  0  0  0  0  0  0  0  0
   34.5670   39.3750   21.7620 C   0  0  0  0  0  0  0  0  0  0  0  0
   34.7220   35.8900   20.4730 C   0  0  0  0  0  0  0  0  0  0  0  0
   35.7390   35.4860   18.3520 C   0  0  0  0  0  0  0  0  0  0  0  0
   33.4680   35.1490   24.0300 C   0  0  0  0  0  0  0  0  0  0  0  0
   37.5070   35.8830   19.5720 H   0  0  0  0  0  0  0  0  0  0  0  0
   34.9100   35.0390   19.3910 O   0  0  0  0  0  0  0  0  0  0  0  0
   34.2270   40.0500   22.8660 N   0  0  0  0  0  0  0  0  0  0  0  0
   34.1280   33.8830   21.6530 O   0  0  0  0  0  0  0  0  0  0  0  0
   33.9320   35.8600   22.8060 N   0  0  0  0  0  0  0  0  0  0  0  0
   33.6580   37.9220   23.9700 N   0  0  0  0  0  0  0  0  0  0  0  0
   33.3290   40.0370   25.0460 N   0  0  0  0  0  0  0  0  0  0  0  0
   34.8000   39.4300   27.3180 H   0  0  0  0  0  0  0  0  0  0  0  0
   34.2550   37.8740   26.5670 H   0  0  0  0  0  0  0  0  0  0  0  0
   34.0310   37.6080   29.0100 H   0  0  0  0  0  0  0  0  0  0  0  0
   33.1150   39.2000   29.1440 H   0  0  0  0  0  0  0  0  0  0  0  0
   30.7460   39.0770   28.2260 H   0  0  0  0  0  0  0  0  0  0  0  0
   30.3120   37.4300   27.5340 H   0  0  0  0  0  0  0  0  0  0  0  0
   31.7710   37.7750   25.5920 H   0  0  0  0  0  0  0  0  0  0  0  0
   30.7530   39.2660   25.7310 H   0  0  0  0  0  0  0  0  0  0  0  0
   39.1340   36.3640   17.5850 F   0  0  0  0  0  0  0  0  0  0  0  0
   32.5710   40.4770   26.9300 H   0  0  0  0  0  0  0  0  0  0  0  0
   35.1730   37.8090   19.6030 H   0  0  0  0  0  0  0  0  0  0  0  0
   35.5350   35.7150   14.9670 H   0  0  0  0  0  0  0  0  0  0  0  0
   34.1030   35.2200   16.9390 H   0  0  0  0  0  0  0  0  0  0  0  0
   34.9160   39.9630   20.8970 H   0  0  0  0  0  0  0  0  0  0  0  0
   34.1210   35.4240   24.9020 H   0  0  0  0  0  0  0  0  0  0  0  0
   32.4110   35.4460   24.2660 H   0  0  0  0  0  0  0  0  0  0  0  0
   33.5130   34.0390   23.8760 H   0  0  0  0  0  0  0  0  0  0  0  0
   33.5510   41.0550   25.0580 H   0  0  0  0  0  0  0  0  0  0  0  0
   37.9410   36.2610   15.2620 H   0  0  0  0  0  0  0  0  0  0  0  0
  1  2  1  0  0  0  0
  1 10  1  0  0  0  0
  1 28  1  0  0  0  0
  1 29  1  0  0  0  0
  2  6  1  0  0  0  0
  2 30  1  0  0  0  0
  2 31  1  0  0  0  0
  3  4  1  0  0  0  0
  3  6  1  0  0  0  0
  3 32  1  0  0  0  0
  3 33  1  0  0  0  0
  4 10  1  0  0  0  0
  4 34  1  0  0  0  0
  4 35  1  0  0  0  0
  5  8  2  0  0  0  0
  5 13  1  0  0  0  0
  5 36  1  0  0  0  0
  7 18  1  0  0  0  0
  7 24  2  0  0  0  0
  7 25  1  0  0  0  0
  8 19  1  0  0  0  0
  8 21  1  0  0  0  0
  9 23  2  0  0  0  0
  9 26  1  0  0  0  0
  9 27  1  0  0  0  0
 10 27  1  0  0  0  0
 10 37  1  0  0  0  0
 11 12  1  0  0  0  0
 11 16  1  0  0  0  0
 11 17  2  0  0  0  0
 12 18  2  0  0  0  0
 12 38  1  0  0  0  0
 13 14  2  0  0  0  0
 13 46  1  0  0  0  0
 14 15  1  0  0  0  0
 14 39  1  0  0  0  0
 15 19  2  0  0  0  0
 15 40  1  0  0  0  0
 16 25  1  0  0  0  0
 16 26  2  0  0  0  0
 17 23  1  0  0  0  0
 17 41  1  0  0  0  0
 18 22  1  0  0  0  0
 19 22  1  0  0  0  0
 20 25  1  0  0  0  0
 20 42  1  0  0  0  0
 20 43  1  0  0  0  0
 20 44  1  0  0  0  0
 27 45  1  0  0  0  0
M  END
$$$$
