p38a_2g
 OpenBabel02232411163D
Structure written by MMmdl.
 46 49  0  0  0  0  0  0  0  0999 V2000
   34.1850   38.2590   27.0530 C   0  0  0  0  0  0  0  0  0  0  0  0
   33.5800   37.7750   28.3770 C   0  0  0  0  0  0  0  0  0  0  0  0
   31.3360   38.3090   27.6520 C   0  0  0  0  0  0  0  0  0  0  0  0
   31.8340   38.8140   26.2910 C   0  0  0  0  0  0  0  0  0  0  0  0
   36.7070   35.7080   15.9980 C   0  0  0  0  0  0  0  0  0  0  0  0
   32.2200   37.3100   28.2080 O   0  0  0  0  0  0  0  0  0  0  0  0
   34.3960   35.0670   21.4700 C   0  0  0  0  0  0  0  0  0  0  0  0
   35.8020   35.3860   17.0030 C   0  0  0  0  0  0  0  0  0  0  0  0
   34.0270   39.1880   23.9830 C   0  0  0  0  0  0  0  0  0  0  0  0
   33.2770   39.3390   26.4370 C   0  0  0  0  0  0  0  0  0  0  0  0
   34.6420   37.9300   21.6030 C   0  0  0  0  0  0  0  0  0  0  0  0
   35.0040   37.2500   20.3920 C   0  0  0  0  0  0  0  0  0  0  0  0
   37.9750   36.1730   16.3730 C   0  0  0  0  0  0  0  0  0  0  0  0
   38.3250   36.2910   17.7200 C   0  0  0  0  0  0  0  0  0  0  0  0
   37.4080   35.9840   18.7330 C   0  0  0  0  0  0  0  0  0  0  0  0
   34.2350   37.1910   22.7540 C   0  0  0  0  0  0  0  0  0  0  0  0
   34.6700   39.3460   21.7260 C   0  0  0  0  0  0  0  0  0  0  0  0
   34.9040   35.9000   20.3500 C   0  0  0  0  0  0  0  0  0  0  0  0
   36.1400   35.5320   18.3640 C   0  0  0  0  0  0  0  0  0  0  0  0
   33.7480   35.0340   23.9090 C   0  0  0  0  0  0  0  0  0  0  0  0
   34.5970   34.9050   16.7110 F   0  0  0  0  0  0  0  0  0  0  0  0
   35.1590   35.0810   19.2510 O   0  0  0  0  0  0  0  0  0  0  0  0
   34.3720   39.9830   22.8650 N   0  0  0  0  0  0  0  0  0  0  0  0
   34.1930   33.8740   21.4220 O   0  0  0  0  0  0  0  0  0  0  0  0
   34.1280   35.7930   22.6860 N   0  0  0  0  0  0  0  0  0  0  0  0
   33.9270   37.8130   23.9410 N   0  0  0  0  0  0  0  0  0  0  0  0
   33.8240   39.8760   25.1550 N   0  0  0  0  0  0  0  0  0  0  0  0
   35.2020   38.6800   27.2410 H   0  0  0  0  0  0  0  0  0  0  0  0
   34.2880   37.3920   26.3540 H   0  0  0  0  0  0  0  0  0  0  0  0
   34.0990   36.8590   28.7440 H   0  0  0  0  0  0  0  0  0  0  0  0
   33.5920   38.5840   29.1440 H   0  0  0  0  0  0  0  0  0  0  0  0
   31.2400   39.1460   28.3800 H   0  0  0  0  0  0  0  0  0  0  0  0
   30.3800   37.7460   27.5500 H   0  0  0  0  0  0  0  0  0  0  0  0
   31.8040   37.9770   25.5520 H   0  0  0  0  0  0  0  0  0  0  0  0
   31.1680   39.6300   25.9260 H   0  0  0  0  0  0  0  0  0  0  0  0
   36.4400   35.6310   14.9430 H   0  0  0  0  0  0  0  0  0  0  0  0
   33.2680   40.2390   27.1260 H   0  0  0  0  0  0  0  0  0  0  0  0
   35.3620   37.8480   19.5480 H   0  0  0  0  0  0  0  0  0  0  0  0
   39.3250   36.6460   17.9790 H   0  0  0  0  0  0  0  0  0  0  0  0
   37.6830   36.1150   19.7790 H   0  0  0  0  0  0  0  0  0  0  0  0
   34.9350   39.9660   20.8530 H   0  0  0  0  0  0  0  0  0  0  0  0
   34.5010   35.2190   24.7220 H   0  0  0  0  0  0  0  0  0  0  0  0
   32.7400   35.3710   24.2730 H   0  0  0  0  0  0  0  0  0  0  0  0
   33.7110   33.9350   23.6880 H   0  0  0  0  0  0  0  0  0  0  0  0
   33.8350   40.9170   25.1210 H   0  0  0  0  0  0  0  0  0  0  0  0
   38.6890   36.4690   15.6060 H   0  0  0  0  0  0  0  0  0  0  0  0
  1  2  1  0  0  0  0
  1 10  1  0  0  0  0
  1 28  1  0  0  0  0
  1 29  1  0  0  0  0
  2  6  1  0  0  0  0
  2 30  1  0  0  0  0
  2 31  1  0  0  0  0
  3  4  1  0  0  0  0
  3  6  1  0  0  0  0
  3 32  1  0  0  0  0
  3 33  1  0  0  0  0
  4 10  1  0  0  0  0
  4 34  1  0  0  0  0
  4 35  1  0  0  0  0
  5  8  2  0  0  0  0
  5 13  1  0  0  0  0
  5 36  1  0  0  0  0
  7 18  1  0  0  0  0
  7 24  2  0  0  0  0
  7 25  1  0  0  0  0
  8 19  1  0  0  0  0
  8 21  1  0  0  0  0
  9 23  2  0  0  0  0
  9 26  1  0  0  0  0
  9 27  1  0  0  0  0
 10 27  1  0  0  0  0
 10 37  1  0  0  0  0
 11 12  1  0  0  0  0
 11 16  1  0  0  0  0
 11 17  2  0  0  0  0
 12 18  2  0  0  0  0
 12 38  1  0  0  0  0
 13 14  2  0  0  0  0
 13 46  1  0  0  0  0
 14 15  1  0  0  0  0
 14 39  1  0  0  0  0
 15 19  2  0  0  0  0
 15 40  1  0  0  0  0
 16 25  1  0  0  0  0
 16 26  2  0  0  0  0
 17 23  1  0  0  0  0
 17 41  1  0  0  0  0
 18 22  1  0  0  0  0
 19 22  1  0  0  0  0
 20 25  1  0  0  0  0
 20 42  1  0  0  0  0
 20 43  1  0  0  0  0
 20 44  1  0  0  0  0
 27 45  1  0  0  0  0
M  END
$$$$
