18639-1
 OpenBabel02232411163D
Structure written by MMmdl.
 48 49  0  0  0  0  0  0  0  0999 V2000
   24.4730   10.8240   30.7900 C   0  0  0  0  0  0  0  0  0  0  0  0
   23.1600   11.2030   30.1360 C   0  0  0  0  0  0  0  0  0  0  0  0
   22.0720   11.2730   31.1360 O   0  0  0  0  0  0  0  0  0  0  0  0
   21.4820   10.1270   31.5460 C   0  0  0  0  0  0  0  0  0  0  0  0
   21.9530    8.9370   31.1050 N   0  0  0  0  0  0  0  0  0  0  0  0
   21.2550    7.7970   31.4720 C   0  0  0  0  0  0  0  0  0  0  0  0
   20.1210    7.8320   32.2750 C   0  0  0  0  0  0  0  0  0  0  0  0
   19.6410    9.0850   32.7450 C   0  0  0  0  0  0  0  0  0  0  0  0
   18.5040    9.1250   33.5100 N   0  0  0  0  0  0  0  0  0  0  0  0
   20.3400   10.2830   32.3870 C   0  0  0  0  0  0  0  0  0  0  0  0
   19.9420   11.5810   32.7700 C   0  0  0  0  0  0  0  0  0  0  0  0
   19.6670   12.6740   33.0460 N   0  0  0  0  0  0  0  0  0  0  0  0
   21.8370    6.6310   30.9210 N   0  0  0  0  0  0  0  0  0  0  0  0
   21.2490    5.3510   30.8480 C   0  0  0  0  0  0  0  0  0  0  0  0
   20.1670    5.0920   31.3290 O   0  0  0  0  0  0  0  0  0  0  0  0
   22.0730    4.3570   30.0370 C   0  0  0  0  0  0  0  0  0  0  0  0
   23.4400    4.0850   30.5920 C   0  0  0  0  0  0  0  0  0  0  0  0
   24.5370    4.9480   30.2760 C   0  0  0  0  0  0  0  0  0  0  0  0
   24.1780    6.0030   29.4460 O   0  0  0  0  0  0  0  0  0  0  0  0
   25.1390    7.0810   29.2710 C   0  0  0  0  0  0  0  0  0  0  0  0
   25.8170    4.7010   30.7450 C   0  0  0  0  0  0  0  0  0  0  0  0
   26.0470    3.5830   31.5740 C   0  0  0  0  0  0  0  0  0  0  0  0
   27.4000    3.3250   32.0770 N   0  3  0  0  0  0  0  0  0  0  0  0
   27.5330    2.5260   32.9910 O   0  5  0  0  0  0  0  0  0  0  0  0
   28.3390    3.9160   31.5570 O   0  0  0  0  0  0  0  0  0  0  0  0
   24.9750    2.7170   31.8940 C   0  0  0  0  0  0  0  0  0  0  0  0
   23.6800    2.9760   31.3870 C   0  0  0  0  0  0  0  0  0  0  0  0
   25.3220    1.6760   32.7020 O   0  0  0  0  0  0  0  0  0  0  0  0
   24.3220    0.6400   32.9390 C   0  0  0  0  0  0  0  0  0  0  0  0
   25.2680   10.7540   30.0060 H   0  0  0  0  0  0  0  0  0  0  0  0
   24.7800   11.5840   31.5390 H   0  0  0  0  0  0  0  0  0  0  0  0
   24.4020    9.8280   31.2880 H   0  0  0  0  0  0  0  0  0  0  0  0
   23.1520   12.2620   29.7840 H   0  0  0  0  0  0  0  0  0  0  0  0
   22.8720   10.4930   29.3280 H   0  0  0  0  0  0  0  0  0  0  0  0
   19.5830    6.9180   32.5320 H   0  0  0  0  0  0  0  0  0  0  0  0
   18.0080    8.2520   33.7730 H   0  0  0  0  0  0  0  0  0  0  0  0
   18.1030   10.0100   33.8190 H   0  0  0  0  0  0  0  0  0  0  0  0
   22.7460    6.7840   30.4170 H   0  0  0  0  0  0  0  0  0  0  0  0
   21.4990    3.3940   29.9710 H   0  0  0  0  0  0  0  0  0  0  0  0
   22.1830    4.7750   28.9970 H   0  0  0  0  0  0  0  0  0  0  0  0
   25.4980    7.4530   30.2540 H   0  0  0  0  0  0  0  0  0  0  0  0
   25.9680    6.7230   28.6230 H   0  0  0  0  0  0  0  0  0  0  0  0
   24.5150    7.8470   28.7550 H   0  0  0  0  0  0  0  0  0  0  0  0
   26.6590    5.3480   30.4720 H   0  0  0  0  0  0  0  0  0  0  0  0
   22.8630    2.2880   31.6200 H   0  0  0  0  0  0  0  0  0  0  0  0
   24.9060   -0.0950   33.5430 H   0  0  0  0  0  0  0  0  0  0  0  0
   23.4750    1.0540   33.5260 H   0  0  0  0  0  0  0  0  0  0  0  0
   23.9980    0.1960   31.9730 H   0  0  0  0  0  0  0  0  0  0  0  0
  1  2  1  0  0  0  0
  1 30  1  0  0  0  0
  1 31  1  0  0  0  0
  1 32  1  0  0  0  0
  2  3  1  0  0  0  0
  2 33  1  0  0  0  0
  2 34  1  0  0  0  0
  3  4  1  0  0  0  0
  4 10  2  0  0  0  0
  4  5  1  0  0  0  0
  5  6  2  0  0  0  0
  6  7  1  0  0  0  0
  6 13  1  0  0  0  0
  7  8  2  0  0  0  0
  7 35  1  0  0  0  0
  8  9  1  0  0  0  0
  8 10  1  0  0  0  0
  9 36  1  0  0  0  0
  9 37  1  0  0  0  0
 10 11  1  0  0  0  0
 11 12  3  0  0  0  0
 13 14  1  0  0  0  0
 13 38  1  0  0  0  0
 14 15  2  0  0  0  0
 14 16  1  0  0  0  0
 16 17  1  0  0  0  0
 16 39  1  0  0  0  0
 16 40  1  0  0  0  0
 17 27  2  0  0  0  0
 17 18  1  0  0  0  0
 18 19  1  0  0  0  0
 18 21  2  0  0  0  0
 19 20  1  0  0  0  0
 20 41  1  0  0  0  0
 20 42  1  0  0  0  0
 20 43  1  0  0  0  0
 21 22  1  0  0  0  0
 21 44  1  0  0  0  0
 22 23  1  0  0  0  0
 22 26  2  0  0  0  0
 23 24  1  0  0  0  0
 23 25  2  0  0  0  0
 26 27  1  0  0  0  0
 26 28  1  0  0  0  0
 27 45  1  0  0  0  0
 28 29  1  0  0  0  0
 29 46  1  0  0  0  0
 29 47  1  0  0  0  0
 29 48  1  0  0  0  0
M  CHG  2  23   1  24  -1
M  END
$$$$
