CAT-13g
 OpenBabel02232411143D
Structure written by MMmdl.
 52 55  0  0  1  0  0  0  0  0999 V2000
   11.4570   -1.8970    1.4180 C   0  0  0  0  0  0  0  0  0  0  0  0
   12.7970   -1.6150    0.8590 N   0  0  0  0  0  0  0  0  0  0  0  0
   13.9940   -1.9010    1.5250 C   0  0  0  0  0  0  0  0  0  0  0  0
   14.1840   -2.2140    2.8360 N   0  0  0  0  0  0  0  0  0  0  0  0
   15.0600   -1.8600    0.6150 N   0  3  0  0  0  0  0  0  0  0  0  0
   14.5060   -2.2100   -0.7500 C   0  0  1  0  0  0  0  0  0  0  0  0
   15.2310   -1.3930   -1.7920 C   0  0  0  0  0  0  0  0  0  0  0  0
   16.0240   -1.9490   -2.8010 C   0  0  0  0  0  0  0  0  0  0  0  0
   16.5760   -1.1100   -3.7770 C   0  0  0  0  0  0  0  0  0  0  0  0
   16.3370    0.2660   -3.7660 C   0  0  0  0  0  0  0  0  0  0  0  0
   15.5780    0.8360   -2.7310 C   0  0  0  0  0  0  0  0  0  0  0  0
   15.2520    2.2770   -2.6790 C   0  0  0  0  0  0  0  0  0  0  0  0
   14.7670    2.9380   -3.8180 C   0  0  0  0  0  0  0  0  0  0  0  0
   14.2920    4.2500   -3.7200 C   0  0  0  0  0  0  0  0  0  0  0  0
   14.2780    4.9070   -2.4870 C   0  0  0  0  0  0  0  0  0  0  0  0
   14.8070    4.2510   -1.3720 C   0  0  0  0  0  0  0  0  0  0  0  0
   14.7610    5.0380    0.1590 Cl  0  0  0  0  0  0  0  0  0  0  0  0
   15.3220    2.9590   -1.4510 C   0  0  0  0  0  0  0  0  0  0  0  0
   15.0490    0.0000   -1.7370 C   0  0  0  0  0  0  0  0  0  0  0  0
   14.4260   -3.7630   -0.9160 C   0  0  0  0  0  0  0  0  0  0  0  0
   15.6230   -4.4430   -0.2200 C   0  0  0  0  0  0  0  0  0  0  0  0
   15.5850   -5.9370   -0.5490 C   0  0  0  0  0  0  0  0  0  0  0  0
   14.3350   -6.5940    0.0490 C   0  0  0  0  0  0  0  0  0  0  0  0
   13.0740   -5.9070   -0.4970 C   0  0  0  0  0  0  0  0  0  0  0  0
   13.1300   -4.3770   -0.3280 C   0  0  0  0  0  0  0  0  0  0  0  0
   13.0400   -1.6820   -0.6110 C   0  0  0  0  0  0  0  0  0  0  0  0
   12.2160   -1.3550   -1.4000 O   0  0  0  0  0  0  0  0  0  0  0  0
   10.8070   -0.9970    1.2380 H   0  0  0  0  0  0  0  0  0  0  0  0
   11.0010   -2.7940    0.9180 H   0  0  0  0  0  0  0  0  0  0  0  0
   11.5140   -2.1050    2.5140 H   0  0  0  0  0  0  0  0  0  0  0  0
   13.5300   -1.8540    3.5750 H   0  0  0  0  0  0  0  0  0  0  0  0
   15.9820   -2.2850    0.9280 H   0  0  0  0  0  0  0  0  0  0  0  0
   16.2190   -3.0230   -2.8360 H   0  0  0  0  0  0  0  0  0  0  0  0
   17.2010   -1.5370   -4.5650 H   0  0  0  0  0  0  0  0  0  0  0  0
   16.7420    0.8910   -4.5680 H   0  0  0  0  0  0  0  0  0  0  0  0
   14.7390    2.4200   -4.7810 H   0  0  0  0  0  0  0  0  0  0  0  0
   13.9060    4.7550   -4.6140 H   0  0  0  0  0  0  0  0  0  0  0  0
   13.8370    5.9040   -2.3990 H   0  0  0  0  0  0  0  0  0  0  0  0
   15.7550    2.4730   -0.5740 H   0  0  0  0  0  0  0  0  0  0  0  0
   14.4850    0.4360   -0.9090 H   0  0  0  0  0  0  0  0  0  0  0  0
   14.4470   -3.9920   -2.0110 H   0  0  0  0  0  0  0  0  0  0  0  0
   16.5870   -3.9990   -0.5550 H   0  0  0  0  0  0  0  0  0  0  0  0
   15.5280   -4.3230    0.8850 H   0  0  0  0  0  0  0  0  0  0  0  0
   16.5120   -6.4420   -0.2190 H   0  0  0  0  0  0  0  0  0  0  0  0
   15.5240   -5.9600   -1.6480 H   0  0  0  0  0  0  0  0  0  0  0  0
   14.3090   -7.6760   -0.2160 H   0  0  0  0  0  0  0  0  0  0  0  0
   14.3450   -6.4990    1.1600 H   0  0  0  0  0  0  0  0  0  0  0  0
   12.9530   -6.1350   -1.5760 H   0  0  0  0  0  0  0  0  0  0  0  0
   12.1800   -6.2900    0.0530 H   0  0  0  0  0  0  0  0  0  0  0  0
   13.0900   -4.1750    0.7690 H   0  0  0  0  0  0  0  0  0  0  0  0
   12.2340   -3.9610   -0.8380 H   0  0  0  0  0  0  0  0  0  0  0  0
   15.1830   -2.2520    3.1920 H   0  0  0  0  0  0  0  0  0  0  0  0
  1  2  1  0  0  0  0
  1 28  1  0  0  0  0
  1 29  1  0  0  0  0
  1 30  1  0  0  0  0
  2  3  1  0  0  0  0
  2 26  1  0  0  0  0
  3  4  1  0  0  0  0
  3  5  2  0  0  0  0
  4 31  1  0  0  0  0
  4 52  1  0  0  0  0
  5  6  1  0  0  0  0
  5 32  1  0  0  0  0
  6  7  1  6  0  0  0
  6 20  1  0  0  0  0
  6 26  1  0  0  0  0
  7  8  2  0  0  0  0
  7 19  1  0  0  0  0
  8  9  1  0  0  0  0
  8 33  1  0  0  0  0
  9 10  2  0  0  0  0
  9 34  1  0  0  0  0
 10 11  1  0  0  0  0
 10 35  1  0  0  0  0
 11 12  1  0  0  0  0
 11 19  2  0  0  0  0
 12 13  2  0  0  0  0
 12 18  1  0  0  0  0
 13 14  1  0  0  0  0
 13 36  1  0  0  0  0
 14 15  2  0  0  0  0
 14 37  1  0  0  0  0
 15 16  1  0  0  0  0
 15 38  1  0  0  0  0
 16 17  1  0  0  0  0
 16 18  2  0  0  0  0
 18 39  1  0  0  0  0
 19 40  1  0  0  0  0
 20 21  1  0  0  0  0
 20 25  1  0  0  0  0
 20 41  1  0  0  0  0
 21 22  1  0  0  0  0
 21 42  1  0  0  0  0
 21 43  1  0  0  0  0
 22 23  1  0  0  0  0
 22 44  1  0  0  0  0
 22 45  1  0  0  0  0
 23 24  1  0  0  0  0
 23 46  1  0  0  0  0
 23 47  1  0  0  0  0
 24 25  1  0  0  0  0
 24 48  1  0  0  0  0
 24 49  1  0  0  0  0
 25 50  1  0  0  0  0
 25 51  1  0  0  0  0
 26 27  2  0  0  0  0
M  CHG  1   5   1
M  END
$$$$
