18639-1
 OpenBabel02232411163D
Structure written by MMmdl.
 48 49  0  0  0  0  0  0  0  0999 V2000
   23.8750   12.6030   30.3430 C   0  0  0  0  0  0  0  0  0  0  0  0
   23.4120   11.1620   30.4420 C   0  0  0  0  0  0  0  0  0  0  0  0
   22.1660   11.2640   31.2470 O   0  0  0  0  0  0  0  0  0  0  0  0
   21.5390   10.1230   31.6010 C   0  0  0  0  0  0  0  0  0  0  0  0
   22.0200    8.9350   31.1600 N   0  0  0  0  0  0  0  0  0  0  0  0
   21.2980    7.7970   31.4830 C   0  0  0  0  0  0  0  0  0  0  0  0
   20.1430    7.8310   32.2580 C   0  0  0  0  0  0  0  0  0  0  0  0
   19.6560    9.0790   32.7300 C   0  0  0  0  0  0  0  0  0  0  0  0
   18.5080    9.1140   33.4810 N   0  0  0  0  0  0  0  0  0  0  0  0
   20.3640   10.2770   32.3960 C   0  0  0  0  0  0  0  0  0  0  0  0
   19.9520   11.5750   32.7660 C   0  0  0  0  0  0  0  0  0  0  0  0
   19.6630   12.6670   33.0300 N   0  0  0  0  0  0  0  0  0  0  0  0
   21.8710    6.6290   30.9250 N   0  0  0  0  0  0  0  0  0  0  0  0
   21.2640    5.3580   30.8440 C   0  0  0  0  0  0  0  0  0  0  0  0
   20.1720    5.1170   31.3140 O   0  0  0  0  0  0  0  0  0  0  0  0
   22.0740    4.3460   30.0420 C   0  0  0  0  0  0  0  0  0  0  0  0
   23.4240    4.0360   30.6190 C   0  0  0  0  0  0  0  0  0  0  0  0
   24.5450    4.8720   30.3190 C   0  0  0  0  0  0  0  0  0  0  0  0
   24.2230    5.9240   29.4720 O   0  0  0  0  0  0  0  0  0  0  0  0
   25.2140    6.9740   29.2930 C   0  0  0  0  0  0  0  0  0  0  0  0
   25.8100    4.6020   30.8160 C   0  0  0  0  0  0  0  0  0  0  0  0
   26.0010    3.4810   31.6510 C   0  0  0  0  0  0  0  0  0  0  0  0
   27.3380    3.1960   32.1810 N   0  3  0  0  0  0  0  0  0  0  0  0
   27.4340    2.4130   33.1130 O   0  5  0  0  0  0  0  0  0  0  0  0
   28.3010    3.7480   31.6630 O   0  0  0  0  0  0  0  0  0  0  0  0
   24.9050    2.6380   31.9500 C   0  0  0  0  0  0  0  0  0  0  0  0
   23.6250    2.9220   31.4180 C   0  0  0  0  0  0  0  0  0  0  0  0
   25.2150    1.5910   32.7650 O   0  0  0  0  0  0  0  0  0  0  0  0
   24.1960    0.5690   32.9740 C   0  0  0  0  0  0  0  0  0  0  0  0
   24.7740   12.6440   29.6770 H   0  0  0  0  0  0  0  0  0  0  0  0
   23.0830   13.2480   29.8940 H   0  0  0  0  0  0  0  0  0  0  0  0
   24.1500   13.0130   31.3400 H   0  0  0  0  0  0  0  0  0  0  0  0
   23.1360   10.7320   29.4530 H   0  0  0  0  0  0  0  0  0  0  0  0
   24.1330   10.5160   30.9920 H   0  0  0  0  0  0  0  0  0  0  0  0
   19.5930    6.9160   32.4910 H   0  0  0  0  0  0  0  0  0  0  0  0
   18.0070    8.2410   33.7320 H   0  0  0  0  0  0  0  0  0  0  0  0
   18.1020    9.9980   33.7890 H   0  0  0  0  0  0  0  0  0  0  0  0
   22.7920    6.7670   30.4410 H   0  0  0  0  0  0  0  0  0  0  0  0
   21.4760    3.3990   29.9640 H   0  0  0  0  0  0  0  0  0  0  0  0
   22.2120    4.7650   29.0050 H   0  0  0  0  0  0  0  0  0  0  0  0
   25.5390    7.3770   30.2760 H   0  0  0  0  0  0  0  0  0  0  0  0
   26.0610    6.5780   28.6920 H   0  0  0  0  0  0  0  0  0  0  0  0
   24.6270    7.7310   28.7230 H   0  0  0  0  0  0  0  0  0  0  0  0
   26.6700    5.2350   30.5640 H   0  0  0  0  0  0  0  0  0  0  0  0
   22.7890    2.2530   31.6380 H   0  0  0  0  0  0  0  0  0  0  0  0
   24.7540   -0.1750   33.5920 H   0  0  0  0  0  0  0  0  0  0  0  0
   23.3380    0.9930   33.5370 H   0  0  0  0  0  0  0  0  0  0  0  0
   23.8920    0.1300   31.9980 H   0  0  0  0  0  0  0  0  0  0  0  0
  1  2  1  0  0  0  0
  1 30  1  0  0  0  0
  1 31  1  0  0  0  0
  1 32  1  0  0  0  0
  2  3  1  0  0  0  0
  2 33  1  0  0  0  0
  2 34  1  0  0  0  0
  3  4  1  0  0  0  0
  4 10  2  0  0  0  0
  4  5  1  0  0  0  0
  5  6  2  0  0  0  0
  6  7  1  0  0  0  0
  6 13  1  0  0  0  0
  7  8  2  0  0  0  0
  7 35  1  0  0  0  0
  8  9  1  0  0  0  0
  8 10  1  0  0  0  0
  9 36  1  0  0  0  0
  9 37  1  0  0  0  0
 10 11  1  0  0  0  0
 11 12  3  0  0  0  0
 13 14  1  0  0  0  0
 13 38  1  0  0  0  0
 14 15  2  0  0  0  0
 14 16  1  0  0  0  0
 16 17  1  0  0  0  0
 16 39  1  0  0  0  0
 16 40  1  0  0  0  0
 17 27  2  0  0  0  0
 17 18  1  0  0  0  0
 18 19  1  0  0  0  0
 18 21  2  0  0  0  0
 19 20  1  0  0  0  0
 20 41  1  0  0  0  0
 20 42  1  0  0  0  0
 20 43  1  0  0  0  0
 21 22  1  0  0  0  0
 21 44  1  0  0  0  0
 22 23  1  0  0  0  0
 22 26  2  0  0  0  0
 23 24  1  0  0  0  0
 23 25  2  0  0  0  0
 26 27  1  0  0  0  0
 26 28  1  0  0  0  0
 27 45  1  0  0  0  0
 28 29  1  0  0  0  0
 29 46  1  0  0  0  0
 29 47  1  0  0  0  0
 29 48  1  0  0  0  0
M  CHG  2  23   1  24  -1
M  END
$$$$
