18630-1
 OpenBabel02232411163D
Structure written by MMmdl.
 41 42  0  0  0  0  0  0  0  0999 V2000
   23.2520   10.8520   29.0570 C   0  0  0  0  0  0  0  0  0  0  0  0
   23.5180   11.0620   30.5320 C   0  0  0  0  0  0  0  0  0  0  0  0
   22.2460   11.1430   31.2820 O   0  0  0  0  0  0  0  0  0  0  0  0
   21.5910   10.0080   31.6090 C   0  0  0  0  0  0  0  0  0  0  0  0
   22.0560    8.8150   31.1730 N   0  0  0  0  0  0  0  0  0  0  0  0
   21.3140    7.6840   31.4800 C   0  0  0  0  0  0  0  0  0  0  0  0
   20.1530    7.7320   32.2460 C   0  0  0  0  0  0  0  0  0  0  0  0
   19.6810    8.9870   32.7160 C   0  0  0  0  0  0  0  0  0  0  0  0
   18.5270    9.0450   33.4550 N   0  0  0  0  0  0  0  0  0  0  0  0
   20.4090   10.1770   32.3910 C   0  0  0  0  0  0  0  0  0  0  0  0
   20.0140   11.4790   32.7640 C   0  0  0  0  0  0  0  0  0  0  0  0
   19.7400   12.5740   33.0300 N   0  0  0  0  0  0  0  0  0  0  0  0
   21.8790    6.5240   30.9020 N   0  0  0  0  0  0  0  0  0  0  0  0
   21.3070    5.2270   30.8520 C   0  0  0  0  0  0  0  0  0  0  0  0
   20.2560    4.9630   31.3950 O   0  0  0  0  0  0  0  0  0  0  0  0
   22.1070    4.2480   30.0070 C   0  0  0  0  0  0  0  0  0  0  0  0
   23.4170    3.8760   30.6470 C   0  0  0  0  0  0  0  0  0  0  0  0
   23.4970    2.7730   31.5120 C   0  0  0  0  0  0  0  0  0  0  0  0
   24.7040    2.4500   32.1330 C   0  0  0  0  0  0  0  0  0  0  0  0
   25.8600    3.2130   31.8920 C   0  0  0  0  0  0  0  0  0  0  0  0
   27.1470    2.8570   32.5590 C   0  0  0  0  0  0  0  0  0  0  0  0
   25.7840    4.2950   31.0010 C   0  0  0  0  0  0  0  0  0  0  0  0
   24.5760    4.6210   30.3810 C   0  0  0  0  0  0  0  0  0  0  0  0
   22.8940    9.8150   28.8520 H   0  0  0  0  0  0  0  0  0  0  0  0
   22.4960   11.5730   28.6740 H   0  0  0  0  0  0  0  0  0  0  0  0
   24.2000   11.0070   28.4850 H   0  0  0  0  0  0  0  0  0  0  0  0
   23.9150   12.0830   30.7480 H   0  0  0  0  0  0  0  0  0  0  0  0
   24.1580   10.2610   30.9670 H   0  0  0  0  0  0  0  0  0  0  0  0
   19.5890    6.8260   32.4750 H   0  0  0  0  0  0  0  0  0  0  0  0
   18.0220    8.1810   33.7320 H   0  0  0  0  0  0  0  0  0  0  0  0
   18.1430    9.9360   33.7710 H   0  0  0  0  0  0  0  0  0  0  0  0
   22.7850    6.6790   30.4160 H   0  0  0  0  0  0  0  0  0  0  0  0
   21.4890    3.3250   29.8530 H   0  0  0  0  0  0  0  0  0  0  0  0
   22.2920    4.7110   29.0030 H   0  0  0  0  0  0  0  0  0  0  0  0
   22.6200    2.1510   31.7020 H   0  0  0  0  0  0  0  0  0  0  0  0
   24.7520    1.5910   32.8090 H   0  0  0  0  0  0  0  0  0  0  0  0
   27.5470    1.9000   32.1390 H   0  0  0  0  0  0  0  0  0  0  0  0
   27.9240    3.6460   32.4120 H   0  0  0  0  0  0  0  0  0  0  0  0
   27.0010    2.7180   33.6580 H   0  0  0  0  0  0  0  0  0  0  0  0
   26.6740    4.8920   30.7830 H   0  0  0  0  0  0  0  0  0  0  0  0
   24.5570    5.4590   29.6800 H   0  0  0  0  0  0  0  0  0  0  0  0
  1  2  1  0  0  0  0
  1 24  1  0  0  0  0
  1 25  1  0  0  0  0
  1 26  1  0  0  0  0
  2  3  1  0  0  0  0
  2 27  1  0  0  0  0
  2 28  1  0  0  0  0
  3  4  1  0  0  0  0
  4 10  2  0  0  0  0
  4  5  1  0  0  0  0
  5  6  2  0  0  0  0
  6  7  1  0  0  0  0
  6 13  1  0  0  0  0
  7  8  2  0  0  0  0
  7 29  1  0  0  0  0
  8  9  1  0  0  0  0
  8 10  1  0  0  0  0
  9 30  1  0  0  0  0
  9 31  1  0  0  0  0
 10 11  1  0  0  0  0
 11 12  3  0  0  0  0
 13 14  1  0  0  0  0
 13 32  1  0  0  0  0
 14 15  2  0  0  0  0
 14 16  1  0  0  0  0
 16 17  1  0  0  0  0
 16 33  1  0  0  0  0
 16 34  1  0  0  0  0
 17 23  2  0  0  0  0
 17 18  1  0  0  0  0
 18 19  2  0  0  0  0
 18 35  1  0  0  0  0
 19 20  1  0  0  0  0
 19 36  1  0  0  0  0
 20 21  1  0  0  0  0
 20 22  2  0  0  0  0
 21 37  1  0  0  0  0
 21 38  1  0  0  0  0
 21 39  1  0  0  0  0
 22 23  1  0  0  0  0
 22 40  1  0  0  0  0
 23 41  1  0  0  0  0
M  END
$$$$
