23485
 OpenBabel02232411173D
Structure written by MMmdl.
 63 66  0  0  0  0  0  0  0  0999 V2000
   41.3130   13.2010   13.6220 C   0  0  0  0  0  0  0  0  0  0  0  0
   42.1270   13.5800   14.8040 C   0  0  0  0  0  0  0  0  0  0  0  0
   42.7270   14.9040   14.9340 C   0  0  0  0  0  0  0  0  0  0  0  0
   42.5570   15.8830   13.9900 O   0  0  0  0  0  0  0  0  0  0  0  0
   41.2190   16.4670   14.0010 C   0  0  0  0  0  0  0  0  0  0  0  0
   41.3930   17.6910   13.0570 C   0  0  0  0  0  0  0  0  0  0  0  0
   42.5220   17.9680   12.6350 O   0  0  0  0  0  0  0  0  0  0  0  0
   40.3390   18.3140   12.7990 O   0  5  0  0  0  0  0  0  0  0  0  0
   43.5660   15.0650   16.0020 C   0  0  0  0  0  0  0  0  0  0  0  0
   44.4010   16.2600   16.4520 C   0  0  0  0  0  0  0  0  0  0  0  0
   45.0110   16.1020   17.5370 O   0  0  0  0  0  0  0  0  0  0  0  0
   44.4690   17.2540   15.7270 O   0  5  0  0  0  0  0  0  0  0  0  0
   43.5990   13.5670   16.9080 S   0  0  0  0  0  0  0  0  0  0  0  0
   42.4750   12.7480   15.8440 C   0  0  0  0  0  0  0  0  0  0  0  0
   42.0250   11.4010   16.1170 C   0  0  0  0  0  0  0  0  0  0  0  0
   42.8290   10.4370   16.7740 C   0  0  0  0  0  0  0  0  0  0  0  0
   42.3510    9.1460   16.9620 C   0  0  0  0  0  0  0  0  0  0  0  0
   41.0930    8.7400   16.4860 C   0  0  0  0  0  0  0  0  0  0  0  0
   40.2790    9.6860   15.8540 C   0  0  0  0  0  0  0  0  0  0  0  0
   38.9290    9.4440   15.4260 N   0  0  0  0  0  0  0  0  0  0  0  0
   38.4780    8.0890   15.0080 C   0  0  0  0  0  0  0  0  0  0  0  0
   36.9420    8.1740   14.8030 C   0  0  0  0  0  0  0  0  0  0  0  0
   36.3730    6.8430   14.2820 C   0  0  0  0  0  0  0  0  0  0  0  0
   37.0480    6.4530   13.0040 N   0  0  0  0  0  0  0  0  0  0  0  0
   36.2400    5.2720   12.0740 S   0  0  0  0  0  0  0  0  0  0  0  0
   37.1090    4.8770   10.9700 O   0  0  0  0  0  0  0  0  0  0  0  0
   35.0060    5.8960   11.5790 O   0  0  0  0  0  0  0  0  0  0  0  0
   35.9290    3.9000   13.1360 C   0  0  0  0  0  0  0  0  0  0  0  0
   35.5770    2.6720   12.3610 C   0  0  0  0  0  0  0  0  0  0  0  0
   34.2630    2.1840   12.3700 C   0  0  0  0  0  0  0  0  0  0  0  0
   33.9310    1.0480   11.6260 C   0  0  0  0  0  0  0  0  0  0  0  0
   34.9020    0.3980   10.8610 C   0  0  0  0  0  0  0  0  0  0  0  0
   36.2200    0.8670   10.8700 C   0  0  0  0  0  0  0  0  0  0  0  0
   36.5640    1.9890   11.6270 C   0  0  0  0  0  0  0  0  0  0  0  0
   38.5210    6.2830   13.2090 C   0  0  0  0  0  0  0  0  0  0  0  0
   39.1320    7.6130   13.6840 C   0  0  0  0  0  0  0  0  0  0  0  0
   40.7400   11.0120   15.7080 C   0  0  0  0  0  0  0  0  0  0  0  0
   41.6010   13.7940   12.7250 H   0  0  0  0  0  0  0  0  0  0  0  0
   41.4590   12.1130   13.3970 H   0  0  0  0  0  0  0  0  0  0  0  0
   40.2230   13.3470   13.8250 H   0  0  0  0  0  0  0  0  0  0  0  0
   40.4900   15.7360   13.5980 H   0  0  0  0  0  0  0  0  0  0  0  0
   40.9310   16.7680   15.0290 H   0  0  0  0  0  0  0  0  0  0  0  0
   43.8310   10.6850   17.1270 H   0  0  0  0  0  0  0  0  0  0  0  0
   42.9660    8.4090   17.4820 H   0  0  0  0  0  0  0  0  0  0  0  0
   40.7750    7.7080   16.6130 H   0  0  0  0  0  0  0  0  0  0  0  0
   38.6200   10.1380   14.7060 H   0  0  0  0  0  0  0  0  0  0  0  0
   38.7010    7.3490   15.8180 H   0  0  0  0  0  0  0  0  0  0  0  0
   36.4530    8.3990   15.7800 H   0  0  0  0  0  0  0  0  0  0  0  0
   36.7040    8.9820   14.0720 H   0  0  0  0  0  0  0  0  0  0  0  0
   36.5230    6.0530   15.0720 H   0  0  0  0  0  0  0  0  0  0  0  0
   35.2770    6.9710   14.0950 H   0  0  0  0  0  0  0  0  0  0  0  0
   36.8330    3.6850   13.7820 H   0  0  0  0  0  0  0  0  0  0  0  0
   35.1200    4.1420   13.8850 H   0  0  0  0  0  0  0  0  0  0  0  0
   33.4850    2.6800   12.9560 H   0  0  0  0  0  0  0  0  0  0  0  0
   32.9030    0.6750   11.6360 H   0  0  0  0  0  0  0  0  0  0  0  0
   34.6280   -0.4690   10.2560 H   0  0  0  0  0  0  0  0  0  0  0  0
   36.9810    0.3480   10.2800 H   0  0  0  0  0  0  0  0  0  0  0  0
   37.6050    2.3300   11.6440 H   0  0  0  0  0  0  0  0  0  0  0  0
   38.7280    5.4890   13.9810 H   0  0  0  0  0  0  0  0  0  0  0  0
   38.9970    5.9880   12.2390 H   0  0  0  0  0  0  0  0  0  0  0  0
   38.9600    8.3880   12.9080 H   0  0  0  0  0  0  0  0  0  0  0  0
   40.2240    7.4590   13.8440 H   0  0  0  0  0  0  0  0  0  0  0  0
   40.0620   11.7440   15.2780 H   0  0  0  0  0  0  0  0  0  0  0  0
  1  2  1  0  0  0  0
  1 38  1  0  0  0  0
  1 39  1  0  0  0  0
  1 40  1  0  0  0  0
  2 14  2  0  0  0  0
  2  3  1  0  0  0  0
  3  4  1  0  0  0  0
  3  9  2  0  0  0  0
  4  5  1  0  0  0  0
  5  6  1  0  0  0  0
  5 41  1  0  0  0  0
  5 42  1  0  0  0  0
  6  7  2  0  0  0  0
  6  8  1  0  0  0  0
  9 10  1  0  0  0  0
  9 13  1  0  0  0  0
 10 11  2  0  0  0  0
 10 12  1  0  0  0  0
 13 14  1  0  0  0  0
 14 15  1  0  0  0  0
 15 37  2  0  0  0  0
 15 16  1  0  0  0  0
 16 17  2  0  0  0  0
 16 43  1  0  0  0  0
 17 18  1  0  0  0  0
 17 44  1  0  0  0  0
 18 19  2  0  0  0  0
 18 45  1  0  0  0  0
 19 20  1  0  0  0  0
 19 37  1  0  0  0  0
 20 21  1  0  0  0  0
 20 46  1  0  0  0  0
 21 36  1  0  0  0  0
 21 22  1  0  0  0  0
 21 47  1  0  0  0  0
 22 23  1  0  0  0  0
 22 48  1  0  0  0  0
 22 49  1  0  0  0  0
 23 24  1  0  0  0  0
 23 50  1  0  0  0  0
 23 51  1  0  0  0  0
 24 25  1  0  0  0  0
 24 35  1  0  0  0  0
 25 26  2  0  0  0  0
 25 27  2  0  0  0  0
 25 28  1  0  0  0  0
 28 29  1  0  0  0  0
 28 52  1  0  0  0  0
 28 53  1  0  0  0  0
 29 34  2  0  0  0  0
 29 30  1  0  0  0  0
 30 31  2  0  0  0  0
 30 54  1  0  0  0  0
 31 32  1  0  0  0  0
 31 55  1  0  0  0  0
 32 33  2  0  0  0  0
 32 56  1  0  0  0  0
 33 34  1  0  0  0  0
 33 57  1  0  0  0  0
 34 58  1  0  0  0  0
 35 36  1  0  0  0  0
 35 59  1  0  0  0  0
 35 60  1  0  0  0  0
 36 61  1  0  0  0  0
 36 62  1  0  0  0  0
 37 63  1  0  0  0  0
M  CHG  2   8  -1  12  -1
M  END
$$$$
