18626-1
 OpenBabel02232411163D
Structure written by MMmdl.
 38 39  0  0  0  0  0  0  0  0999 V2000
   23.2240   10.8570   29.0560 C   0  0  0  0  0  0  0  0  0  0  0  0
   23.4860   11.0860   30.5290 C   0  0  0  0  0  0  0  0  0  0  0  0
   22.2140   11.1540   31.2800 O   0  0  0  0  0  0  0  0  0  0  0  0
   21.5720   10.0120   31.6100 C   0  0  0  0  0  0  0  0  0  0  0  0
   22.0520    8.8230   31.1790 N   0  0  0  0  0  0  0  0  0  0  0  0
   21.3250    7.6850   31.4920 C   0  0  0  0  0  0  0  0  0  0  0  0
   20.1630    7.7210   32.2550 C   0  0  0  0  0  0  0  0  0  0  0  0
   19.6740    8.9730   32.7190 C   0  0  0  0  0  0  0  0  0  0  0  0
   18.5180    9.0210   33.4560 N   0  0  0  0  0  0  0  0  0  0  0  0
   20.3880   10.1690   32.3910 C   0  0  0  0  0  0  0  0  0  0  0  0
   19.9800   11.4690   32.7620 C   0  0  0  0  0  0  0  0  0  0  0  0
   19.6980   12.5620   33.0260 N   0  0  0  0  0  0  0  0  0  0  0  0
   21.9100    6.5270   30.9240 N   0  0  0  0  0  0  0  0  0  0  0  0
   21.3790    5.2150   30.9150 C   0  0  0  0  0  0  0  0  0  0  0  0
   20.3360    4.9270   31.4610 O   0  0  0  0  0  0  0  0  0  0  0  0
   22.2240    4.2360   30.1130 C   0  0  0  0  0  0  0  0  0  0  0  0
   23.5530    3.9690   30.7670 C   0  0  0  0  0  0  0  0  0  0  0  0
   23.6550    2.9820   31.7590 C   0  0  0  0  0  0  0  0  0  0  0  0
   24.8840    2.7890   32.3930 C   0  0  0  0  0  0  0  0  0  0  0  0
   24.9910    1.6210   33.6570 Cl  0  0  0  0  0  0  0  0  0  0  0  0
   26.0240    3.5140   32.0430 C   0  0  0  0  0  0  0  0  0  0  0  0
   25.9170    4.4710   31.0310 C   0  0  0  0  0  0  0  0  0  0  0  0
   24.6920    4.7030   30.3990 C   0  0  0  0  0  0  0  0  0  0  0  0
   24.1730   11.0130   28.4850 H   0  0  0  0  0  0  0  0  0  0  0  0
   22.4640   11.5680   28.6620 H   0  0  0  0  0  0  0  0  0  0  0  0
   22.8750    9.8150   28.8620 H   0  0  0  0  0  0  0  0  0  0  0  0
   23.8670   12.1150   30.7360 H   0  0  0  0  0  0  0  0  0  0  0  0
   24.1380   10.2980   30.9700 H   0  0  0  0  0  0  0  0  0  0  0  0
   19.6120    6.8080   32.4890 H   0  0  0  0  0  0  0  0  0  0  0  0
   18.0190    8.1540   33.7320 H   0  0  0  0  0  0  0  0  0  0  0  0
   18.1240    9.9090   33.7680 H   0  0  0  0  0  0  0  0  0  0  0  0
   22.8110    6.6930   30.4300 H   0  0  0  0  0  0  0  0  0  0  0  0
   21.6580    3.2730   30.0070 H   0  0  0  0  0  0  0  0  0  0  0  0
   22.3830    4.6570   29.0840 H   0  0  0  0  0  0  0  0  0  0  0  0
   22.7940    2.3630   32.0200 H   0  0  0  0  0  0  0  0  0  0  0  0
   26.9840    3.3420   32.5400 H   0  0  0  0  0  0  0  0  0  0  0  0
   26.7990    5.0460   30.7280 H   0  0  0  0  0  0  0  0  0  0  0  0
   24.6440    5.4570   29.6090 H   0  0  0  0  0  0  0  0  0  0  0  0
  1  2  1  0  0  0  0
  1 24  1  0  0  0  0
  1 25  1  0  0  0  0
  1 26  1  0  0  0  0
  2  3  1  0  0  0  0
  2 27  1  0  0  0  0
  2 28  1  0  0  0  0
  3  4  1  0  0  0  0
  4 10  2  0  0  0  0
  4  5  1  0  0  0  0
  5  6  2  0  0  0  0
  6  7  1  0  0  0  0
  6 13  1  0  0  0  0
  7  8  2  0  0  0  0
  7 29  1  0  0  0  0
  8  9  1  0  0  0  0
  8 10  1  0  0  0  0
  9 30  1  0  0  0  0
  9 31  1  0  0  0  0
 10 11  1  0  0  0  0
 11 12  3  0  0  0  0
 13 14  1  0  0  0  0
 13 32  1  0  0  0  0
 14 15  2  0  0  0  0
 14 16  1  0  0  0  0
 16 17  1  0  0  0  0
 16 33  1  0  0  0  0
 16 34  1  0  0  0  0
 17 23  2  0  0  0  0
 17 18  1  0  0  0  0
 18 19  2  0  0  0  0
 18 35  1  0  0  0  0
 19 20  1  0  0  0  0
 19 21  1  0  0  0  0
 21 22  2  0  0  0  0
 21 36  1  0  0  0  0
 22 23  1  0  0  0  0
 22 37  1  0  0  0  0
 23 38  1  0  0  0  0
M  END
$$$$
