1oiu
 OpenBabel02232411153D
Structure written by MMmdl.
 50 53  0  0  0  0  0  0  0  0999 V2000
    1.9650   28.7680    6.7520 C   0  0  0  0  0  0  0  0  0  0  0  0
   -1.4790   31.4160    7.9160 C   0  0  0  0  0  0  0  0  0  0  0  0
    0.0000   25.9520    8.9390 C   0  0  0  0  0  0  0  0  0  0  0  0
   -0.8210   25.2510   10.0290 C   0  0  0  0  0  0  0  0  0  0  0  0
   -0.6840   23.7270    9.8050 C   0  0  0  0  0  0  0  0  0  0  0  0
   -1.3720   22.9320   10.9230 C   0  0  0  0  0  0  0  0  0  0  0  0
   -0.8580   23.3450   12.3110 C   0  0  0  0  0  0  0  0  0  0  0  0
   -1.0280   24.8560   12.5360 C   0  0  0  0  0  0  0  0  0  0  0  0
   -0.3330   25.6640   11.4310 C   0  0  0  0  0  0  0  0  0  0  0  0
    5.3790   25.4290    5.5860 C   0  0  0  0  0  0  0  0  0  0  0  0
    5.2650   24.7280    6.7900 C   0  0  0  0  0  0  0  0  0  0  0  0
    4.4810   25.2470    7.8270 C   0  0  0  0  0  0  0  0  0  0  0  0
    3.7860   26.4450    7.6690 C   0  0  0  0  0  0  0  0  0  0  0  0
    1.2540   27.8360    7.5040 N   0  0  0  0  0  0  0  0  0  0  0  0
    0.0610   28.1820    8.0520 C   0  0  0  0  0  0  0  0  0  0  0  0
   -0.6180   27.2970    8.7970 O   0  0  0  0  0  0  0  0  0  0  0  0
   -0.4590   29.4890    7.8580 C   0  0  0  0  0  0  0  0  0  0  0  0
   -1.5980   30.1520    8.3300 N   0  0  0  0  0  0  0  0  0  0  0  0
   -0.2670   31.6330    7.1690 N   0  0  0  0  0  0  0  0  0  0  0  0
    0.3810   30.4040    7.1010 C   0  0  0  0  0  0  0  0  0  0  0  0
    1.5720   30.0730    6.5030 N   0  0  0  0  0  0  0  0  0  0  0  0
    3.1560   28.3460    6.1710 N   0  0  0  0  0  0  0  0  0  0  0  0
    3.8660   27.1310    6.4430 C   0  0  0  0  0  0  0  0  0  0  0  0
    4.7010   26.6380    5.4140 C   0  0  0  0  0  0  0  0  0  0  0  0
   -2.1710   32.2310    8.1050 H   0  0  0  0  0  0  0  0  0  0  0  0
    1.0650   26.0740    9.2400 H   0  0  0  0  0  0  0  0  0  0  0  0
   -0.1010   25.4660    7.9480 H   0  0  0  0  0  0  0  0  0  0  0  0
   -1.8970   25.5380    9.9330 H   0  0  0  0  0  0  0  0  0  0  0  0
   -1.1440   23.4560    8.8290 H   0  0  0  0  0  0  0  0  0  0  0  0
    0.4000   23.4540    9.7830 H   0  0  0  0  0  0  0  0  0  0  0  0
   -2.4680   23.1150   10.8790 H   0  0  0  0  0  0  0  0  0  0  0  0
   -1.1800   21.8430   10.7750 H   0  0  0  0  0  0  0  0  0  0  0  0
   -1.4210   22.7870   13.0950 H   0  0  0  0  0  0  0  0  0  0  0  0
    0.2230   23.0820   12.3930 H   0  0  0  0  0  0  0  0  0  0  0  0
   -2.1130   25.1070   12.5680 H   0  0  0  0  0  0  0  0  0  0  0  0
   -0.5770   25.1330   13.5180 H   0  0  0  0  0  0  0  0  0  0  0  0
    0.7690   25.4960   11.5110 H   0  0  0  0  0  0  0  0  0  0  0  0
   -0.5330   26.7490   11.5880 H   0  0  0  0  0  0  0  0  0  0  0  0
    5.7790   23.7760    6.9500 H   0  0  0  0  0  0  0  0  0  0  0  0
    4.3990   24.7010    8.7720 H   0  0  0  0  0  0  0  0  0  0  0  0
    3.1860   26.8280    8.4960 H   0  0  0  0  0  0  0  0  0  0  0  0
    0.0020   32.5160    6.7130 H   0  0  0  0  0  0  0  0  0  0  0  0
    3.6820   29.0290    5.5770 H   0  0  0  0  0  0  0  0  0  0  0  0
    4.8140   27.2200    4.4910 H   0  0  0  0  0  0  0  0  0  0  0  0
    6.2910   24.7280    4.2770 S   0  0  0  0  0  0  0  0  0  0  0  0
    7.3850   23.8820    4.7830 O   0  0  0  0  0  0  0  0  0  0  0  0
    5.4000   24.0180    3.3450 O   0  0  0  0  0  0  0  0  0  0  0  0
    6.9400   26.0820    3.4640 N   0  0  0  0  0  0  0  0  0  0  0  0
    7.6160   26.6650    4.0080 H   0  0  0  0  0  0  0  0  0  0  0  0
    7.2500   25.9730    2.4860 H   0  0  0  0  0  0  0  0  0  0  0  0
  1 14  2  0  0  0  0
  1 21  1  0  0  0  0
  1 22  1  0  0  0  0
  2 18  2  0  0  0  0
  2 19  1  0  0  0  0
  2 25  1  0  0  0  0
  3  4  1  0  0  0  0
  3 16  1  0  0  0  0
  3 26  1  0  0  0  0
  3 27  1  0  0  0  0
  4  5  1  0  0  0  0
  4  9  1  0  0  0  0
  4 28  1  0  0  0  0
  5  6  1  0  0  0  0
  5 29  1  0  0  0  0
  5 30  1  0  0  0  0
  6  7  1  0  0  0  0
  6 31  1  0  0  0  0
  6 32  1  0  0  0  0
  7  8  1  0  0  0  0
  7 33  1  0  0  0  0
  7 34  1  0  0  0  0
  8  9  1  0  0  0  0
  8 35  1  0  0  0  0
  8 36  1  0  0  0  0
  9 37  1  0  0  0  0
  9 38  1  0  0  0  0
 10 11  2  0  0  0  0
 10 24  1  0  0  0  0
 10 45  1  0  0  0  0
 11 12  1  0  0  0  0
 11 39  1  0  0  0  0
 12 13  2  0  0  0  0
 12 40  1  0  0  0  0
 13 23  1  0  0  0  0
 13 41  1  0  0  0  0
 14 15  1  0  0  0  0
 15 16  1  0  0  0  0
 15 17  2  0  0  0  0
 17 18  1  0  0  0  0
 17 20  1  0  0  0  0
 19 20  1  0  0  0  0
 19 42  1  0  0  0  0
 20 21  2  0  0  0  0
 22 23  1  0  0  0  0
 22 43  1  0  0  0  0
 23 24  2  0  0  0  0
 24 44  1  0  0  0  0
 45 46  2  0  0  0  0
 45 47  2  0  0  0  0
 45 48  1  0  0  0  0
 48 49  1  0  0  0  0
 48 50  1  0  0  0  0
M  END
$$$$
