CAT-13f
 OpenBabel02232411143D
Structure written by MMmdl.
 49 52  0  0  1  0  0  0  0  0999 V2000
   11.6280   -1.9410    1.1340 C   0  0  0  0  0  0  0  0  0  0  0  0
   12.9580   -1.8030    0.5050 N   0  0  0  0  0  0  0  0  0  0  0  0
   14.1700   -2.0370    1.1640 C   0  0  0  0  0  0  0  0  0  0  0  0
   14.3440   -2.2540    2.5010 N   0  0  0  0  0  0  0  0  0  0  0  0
   15.2220   -2.0200    0.2410 N   0  3  0  0  0  0  0  0  0  0  0  0
   14.6820   -2.1480   -1.1700 C   0  0  1  0  0  0  0  0  0  0  0  0
   15.2910   -1.1020   -2.0860 C   0  0  0  0  0  0  0  0  0  0  0  0
   15.9240   -1.4190   -3.2950 C   0  0  0  0  0  0  0  0  0  0  0  0
   16.3640   -0.3940   -4.1390 C   0  0  0  0  0  0  0  0  0  0  0  0
   16.1900    0.9470   -3.7930 C   0  0  0  0  0  0  0  0  0  0  0  0
   15.5900    1.2780   -2.5680 C   0  0  0  0  0  0  0  0  0  0  0  0
   15.3720    2.6740   -2.1280 C   0  0  0  0  0  0  0  0  0  0  0  0
   14.9050    3.6540   -3.0160 C   0  0  0  0  0  0  0  0  0  0  0  0
   14.5730    4.9280   -2.5430 C   0  0  0  0  0  0  0  0  0  0  0  0
   14.6800    5.2320   -1.1830 C   0  0  0  0  0  0  0  0  0  0  0  0
   15.1490    4.2470   -0.3110 C   0  0  0  0  0  0  0  0  0  0  0  0
   15.1660    4.5420    1.3900 Cl  0  0  0  0  0  0  0  0  0  0  0  0
   15.5430    2.9910   -0.7680 C   0  0  0  0  0  0  0  0  0  0  0  0
   15.1350    0.2450   -1.7340 C   0  0  0  0  0  0  0  0  0  0  0  0
   14.7650   -3.6050   -1.7000 C   0  0  0  0  0  0  0  0  0  0  0  0
   16.2170   -4.1250   -1.6160 C   0  0  0  0  0  0  0  0  0  0  0  0
   16.2580   -5.1800   -0.4950 C   0  0  0  0  0  0  0  0  0  0  0  0
   14.8490   -5.2650    0.1210 C   0  0  0  0  0  0  0  0  0  0  0  0
   13.9060   -4.6100   -0.8980 C   0  0  0  0  0  0  0  0  0  0  0  0
   13.1720   -1.8010   -0.9580 C   0  0  0  0  0  0  0  0  0  0  0  0
   12.2960   -1.5540   -1.7230 O   0  0  0  0  0  0  0  0  0  0  0  0
   11.0610   -0.9820    0.9900 H   0  0  0  0  0  0  0  0  0  0  0  0
   11.0700   -2.7910    0.6550 H   0  0  0  0  0  0  0  0  0  0  0  0
   11.7210   -2.1530    2.2280 H   0  0  0  0  0  0  0  0  0  0  0  0
   13.6610   -1.9010    3.2160 H   0  0  0  0  0  0  0  0  0  0  0  0
   16.1260   -2.4780    0.5400 H   0  0  0  0  0  0  0  0  0  0  0  0
   16.0810   -2.4520   -3.6070 H   0  0  0  0  0  0  0  0  0  0  0  0
   16.8500   -0.6560   -5.0860 H   0  0  0  0  0  0  0  0  0  0  0  0
   16.5200    1.7260   -4.4850 H   0  0  0  0  0  0  0  0  0  0  0  0
   14.7760    3.4200   -4.0770 H   0  0  0  0  0  0  0  0  0  0  0  0
   14.1950    5.6800   -3.2460 H   0  0  0  0  0  0  0  0  0  0  0  0
   14.3840    6.2110   -0.8090 H   0  0  0  0  0  0  0  0  0  0  0  0
   15.9550    2.2510   -0.0790 H   0  0  0  0  0  0  0  0  0  0  0  0
   14.6380    0.4840   -0.7990 H   0  0  0  0  0  0  0  0  0  0  0  0
   14.4060   -3.6000   -2.7590 H   0  0  0  0  0  0  0  0  0  0  0  0
   16.5200   -4.5700   -2.5830 H   0  0  0  0  0  0  0  0  0  0  0  0
   16.9320   -3.3050   -1.3780 H   0  0  0  0  0  0  0  0  0  0  0  0
   16.5640   -6.1680   -0.8830 H   0  0  0  0  0  0  0  0  0  0  0  0
   17.0010   -4.8470    0.2500 H   0  0  0  0  0  0  0  0  0  0  0  0
   14.5500   -6.3180    0.3140 H   0  0  0  0  0  0  0  0  0  0  0  0
   14.8170   -4.7030    1.0830 H   0  0  0  0  0  0  0  0  0  0  0  0
   13.0290   -4.1670   -0.3930 H   0  0  0  0  0  0  0  0  0  0  0  0
   13.5280   -5.3830   -1.6040 H   0  0  0  0  0  0  0  0  0  0  0  0
   15.3280   -2.3320    2.8820 H   0  0  0  0  0  0  0  0  0  0  0  0
  1  2  1  0  0  0  0
  1 27  1  0  0  0  0
  1 28  1  0  0  0  0
  1 29  1  0  0  0  0
  2  3  1  0  0  0  0
  2 25  1  0  0  0  0
  3  4  1  0  0  0  0
  3  5  2  0  0  0  0
  4 30  1  0  0  0  0
  4 49  1  0  0  0  0
  5  6  1  0  0  0  0
  5 31  1  0  0  0  0
  6  7  1  6  0  0  0
  6 20  1  0  0  0  0
  6 25  1  0  0  0  0
  7  8  2  0  0  0  0
  7 19  1  0  0  0  0
  8  9  1  0  0  0  0
  8 32  1  0  0  0  0
  9 10  2  0  0  0  0
  9 33  1  0  0  0  0
 10 11  1  0  0  0  0
 10 34  1  0  0  0  0
 11 12  1  0  0  0  0
 11 19  2  0  0  0  0
 12 13  2  0  0  0  0
 12 18  1  0  0  0  0
 13 14  1  0  0  0  0
 13 35  1  0  0  0  0
 14 15  2  0  0  0  0
 14 36  1  0  0  0  0
 15 16  1  0  0  0  0
 15 37  1  0  0  0  0
 16 17  1  0  0  0  0
 16 18  2  0  0  0  0
 18 38  1  0  0  0  0
 19 39  1  0  0  0  0
 20 21  1  0  0  0  0
 20 24  1  0  0  0  0
 20 40  1  0  0  0  0
 21 22  1  0  0  0  0
 21 41  1  0  0  0  0
 21 42  1  0  0  0  0
 22 23  1  0  0  0  0
 22 43  1  0  0  0  0
 22 44  1  0  0  0  0
 23 24  1  0  0  0  0
 23 45  1  0  0  0  0
 23 46  1  0  0  0  0
 24 47  1  0  0  0  0
 24 48  1  0  0  0  0
 25 26  2  0  0  0  0
M  CHG  1   5   1
M  END
$$$$
