1h1r
                    3D
 Schrodinger Suite 2022-3.
 45 48  0  0  1  0  0  0  0  0999 V2000
    1.7830   28.9290    6.8230 C   0  0  0  0  0  0  0  0  0  0  0  0
   -1.7070   31.5350    7.9340 C   0  0  0  0  0  0  0  0  0  0  0  0
   -0.3220   26.0250    8.8120 C   0  0  0  0  0  0  0  0  0  0  0  0
   -1.0740   25.3730    9.9810 C   0  0  0  0  0  0  0  0  0  0  0  0
   -0.8920   23.8430    9.8520 C   0  0  0  0  0  0  0  0  0  0  0  0
   -1.5260   23.1060   11.0400 C   0  0  0  0  0  0  0  0  0  0  0  0
   -0.9850   23.6210   12.3840 C   0  0  0  0  0  0  0  0  0  0  0  0
   -1.1800   25.1400   12.5160 C   0  0  0  0  0  0  0  0  0  0  0  0
   -0.5480   25.8910   11.3340 C   0  0  0  0  0  0  0  0  0  0  0  0
    5.2210   25.6470    5.7120 C   0  0  0  0  0  0  0  0  0  0  0  0
    5.1190   24.8980    6.8850 C   0  0  0  0  0  0  0  0  0  0  0  0
    4.2920   25.3790    7.9060 C   0  0  0  0  0  0  0  0  0  0  0  0
    3.5850   26.5740    7.7580 C   0  0  0  0  0  0  0  0  0  0  0  0
    1.0420   27.9660    7.5040 N   0  0  0  0  0  0  0  0  0  0  0  0
   -0.1570   28.3020    8.0450 C   0  0  0  0  0  0  0  0  0  0  0  0
   -0.8790   27.3990    8.7220 O   0  0  0  0  0  0  0  0  0  0  0  0
   -0.6560   29.6240    7.9010 C   0  0  0  0  0  0  0  0  0  0  0  0
   -1.8130   30.2710    8.3500 N   0  0  0  0  0  0  0  0  0  0  0  0
   -0.4740   31.7730    7.2270 N   0  0  0  0  0  0  0  0  0  0  0  0
    0.1900   30.5520    7.1700 C   0  0  0  0  0  0  0  0  0  0  0  0
    1.3950   30.2380    6.5910 N   0  0  0  0  0  0  0  0  0  0  0  0
    3.0280   28.5490    6.3320 N   0  0  0  0  0  0  0  0  0  0  0  0
    3.6880   27.2990    6.5570 C   0  0  0  0  0  0  0  0  0  0  0  0
    4.5330   26.8400    5.5220 C   0  0  0  0  0  0  0  0  0  0  0  0
   -2.4200   32.3370    8.0980 H   0  0  0  0  0  0  0  0  0  0  0  0
   -0.5570   25.5510    7.8380 H   0  0  0  0  0  0  0  0  0  0  0  0
    0.7720   26.0750    9.0060 H   0  0  0  0  0  0  0  0  0  0  0  0
   -2.1630   25.6170    9.9030 H   0  0  0  0  0  0  0  0  0  0  0  0
    0.1970   23.5990    9.8140 H   0  0  0  0  0  0  0  0  0  0  0  0
   -1.3700   23.4920    8.9110 H   0  0  0  0  0  0  0  0  0  0  0  0
   -1.3160   22.0150   10.9550 H   0  0  0  0  0  0  0  0  0  0  0  0
   -2.6270   23.2600   11.0170 H   0  0  0  0  0  0  0  0  0  0  0  0
    0.1020   23.3830   12.4620 H   0  0  0  0  0  0  0  0  0  0  0  0
   -1.5190   23.1070   13.2160 H   0  0  0  0  0  0  0  0  0  0  0  0
   -0.6970   25.4840   13.4610 H   0  0  0  0  0  0  0  0  0  0  0  0
   -2.2690   25.3690   12.5760 H   0  0  0  0  0  0  0  0  0  0  0  0
   -0.7750   26.9770   11.4270 H   0  0  0  0  0  0  0  0  0  0  0  0
    0.5600   25.7550   11.3850 H   0  0  0  0  0  0  0  0  0  0  0  0
    6.2250   25.0610    4.4330 Cl  0  0  0  0  0  0  0  0  0  0  0  0
    5.6600   23.9580    7.0020 H   0  0  0  0  0  0  0  0  0  0  0  0
    4.1910   24.8060    8.8330 H   0  0  0  0  0  0  0  0  0  0  0  0
    2.9520   26.9200    8.5780 H   0  0  0  0  0  0  0  0  0  0  0  0
   -0.2280   32.6390    6.7260 H   0  0  0  0  0  0  0  0  0  0  0  0
    3.5130   29.1820    5.6530 H   0  0  0  0  0  0  0  0  0  0  0  0
    4.6420   27.4090    4.5960 H   0  0  0  0  0  0  0  0  0  0  0  0
  1 14  1  0  0  0  0
  1 21  2  0  0  0  0
  1 22  1  0  0  0  0
  2 18  2  0  0  0  0
  2 19  1  0  0  0  0
  2 25  1  0  0  0  0
  3  4  1  0  0  0  0
  3 16  1  0  0  0  0
  3 26  1  0  0  0  0
  3 27  1  0  0  0  0
  4  5  1  0  0  0  0
  4  9  1  0  0  0  0
  4 28  1  0  0  0  0
  5  6  1  0  0  0  0
  5 29  1  0  0  0  0
  5 30  1  0  0  0  0
  6  7  1  0  0  0  0
  6 31  1  0  0  0  0
  6 32  1  0  0  0  0
  7  8  1  0  0  0  0
  7 33  1  0  0  0  0
  7 34  1  0  0  0  0
  8  9  1  0  0  0  0
  8 35  1  0  0  0  0
  8 36  1  0  0  0  0
  9 37  1  0  0  0  0
  9 38  1  0  0  0  0
 10 11  1  0  0  0  0
 10 24  2  0  0  0  0
 10 39  1  0  0  0  0
 11 12  2  0  0  0  0
 11 40  1  0  0  0  0
 12 13  1  0  0  0  0
 12 41  1  0  0  0  0
 13 23  2  0  0  0  0
 13 42  1  0  0  0  0
 14 15  2  0  0  0  0
 15 16  1  0  0  0  0
 15 17  1  0  0  0  0
 17 18  1  0  0  0  0
 17 20  2  0  0  0  0
 19 20  1  0  0  0  0
 19 43  1  0  0  0  0
 20 21  1  0  0  0  0
 22 23  1  0  0  0  0
 22 44  1  0  0  0  0
 23 24  1  0  0  0  0
 24 45  1  0  0  0  0
M  END
$$$$
