p38a_2p
 OpenBabel02232411163D
Structure written by MMmdl.
 58 61  0  0  0  0  0  0  0  0999 V2000
   38.2070   36.4900   17.2120 C   0  0  0  0  0  0  0  0  0  0  0  0
   34.7600   35.1630   21.4110 C   0  0  0  0  0  0  0  0  0  0  0  0
   37.4080   36.0710   18.2730 C   0  0  0  0  0  0  0  0  0  0  0  0
   34.2970   39.2540   23.9410 C   0  0  0  0  0  0  0  0  0  0  0  0
   34.7220   38.0320   21.5060 C   0  0  0  0  0  0  0  0  0  0  0  0
   34.9710   37.3750   20.2530 C   0  0  0  0  0  0  0  0  0  0  0  0
   37.5680   36.6480   15.9740 C   0  0  0  0  0  0  0  0  0  0  0  0
   36.2120   36.3820   15.7680 C   0  0  0  0  0  0  0  0  0  0  0  0
   35.4320   35.9570   16.8500 C   0  0  0  0  0  0  0  0  0  0  0  0
   34.6230   37.2730   22.7110 C   0  0  0  0  0  0  0  0  0  0  0  0
   34.5930   39.4440   21.6200 C   0  0  0  0  0  0  0  0  0  0  0  0
   35.0220   36.0230   20.2290 C   0  0  0  0  0  0  0  0  0  0  0  0
   36.0350   35.7950   18.1010 C   0  0  0  0  0  0  0  0  0  0  0  0
   37.9410   35.9280   19.4790 F   0  0  0  0  0  0  0  0  0  0  0  0
   35.2780   35.2090   19.1250 O   0  0  0  0  0  0  0  0  0  0  0  0
   34.3880   40.0660   22.7880 N   0  0  0  0  0  0  0  0  0  0  0  0
   34.6070   33.9610   21.3850 O   0  0  0  0  0  0  0  0  0  0  0  0
   34.7150   35.8680   22.6680 N   0  0  0  0  0  0  0  0  0  0  0  0
   34.4320   37.8760   23.9260 N   0  0  0  0  0  0  0  0  0  0  0  0
   34.0140   39.8830   25.1230 N   0  0  0  0  0  0  0  0  0  0  0  0
   39.2680   36.7210   17.3450 H   0  0  0  0  0  0  0  0  0  0  0  0
   35.1230   37.9900   19.3630 H   0  0  0  0  0  0  0  0  0  0  0  0
   35.7480   36.5170   14.7890 H   0  0  0  0  0  0  0  0  0  0  0  0
   34.3620   35.7670   16.7130 H   0  0  0  0  0  0  0  0  0  0  0  0
   34.6560   40.0760   20.7170 H   0  0  0  0  0  0  0  0  0  0  0  0
   33.9760   40.9200   25.1620 H   0  0  0  0  0  0  0  0  0  0  0  0
   38.2830   37.1110   14.9520 F   0  0  0  0  0  0  0  0  0  0  0  0
   32.7680   39.2100   28.6710 C   0  0  0  0  0  0  0  0  0  0  0  0
   32.7820   39.7930   27.2520 C   0  0  0  0  0  0  0  0  0  0  0  0
   33.9410   39.1770   26.4390 C   0  0  0  0  0  0  0  0  0  0  0  0
   35.2780   39.3400   27.1940 C   0  0  0  0  0  0  0  0  0  0  0  0
   35.1470   38.7800   28.6170 C   0  0  0  0  0  0  0  0  0  0  0  0
   34.0430   39.3780   29.3310 O   0  0  0  0  0  0  0  0  0  0  0  0
   32.5080   38.1270   28.6520 H   0  0  0  0  0  0  0  0  0  0  0  0
   32.0830   39.7900   29.3320 H   0  0  0  0  0  0  0  0  0  0  0  0
   32.9040   40.9010   27.3060 H   0  0  0  0  0  0  0  0  0  0  0  0
   31.8110   39.5730   26.7470 H   0  0  0  0  0  0  0  0  0  0  0  0
   33.7380   38.0840   26.2600 H   0  0  0  0  0  0  0  0  0  0  0  0
   36.0800   38.7860   26.6530 H   0  0  0  0  0  0  0  0  0  0  0  0
   35.5580   40.4200   27.2340 H   0  0  0  0  0  0  0  0  0  0  0  0
   35.0090   37.6750   28.5940 H   0  0  0  0  0  0  0  0  0  0  0  0
   36.0210   39.0740   29.2440 H   0  0  0  0  0  0  0  0  0  0  0  0
   34.8080   35.0770   23.9370 C   0  0  0  0  0  0  0  0  0  0  0  0
   35.3240   34.1070   23.6970 H   0  0  0  0  0  0  0  0  0  0  0  0
   35.4290   35.6540   24.6760 H   0  0  0  0  0  0  0  0  0  0  0  0
   33.4290   34.7780   24.5680 C   0  0  0  0  0  0  0  0  0  0  0  0
   33.0060   35.7280   24.9810 H   0  0  0  0  0  0  0  0  0  0  0  0
   32.7340   34.3860   23.7850 H   0  0  0  0  0  0  0  0  0  0  0  0
   33.6060   33.7370   25.6810 C   0  0  0  0  0  0  0  0  0  0  0  0
   34.4600   34.0610   26.3400 H   0  0  0  0  0  0  0  0  0  0  0  0
   33.9230   32.7660   25.2120 H   0  0  0  0  0  0  0  0  0  0  0  0
   32.1820   33.4640   26.6790 S   0  0  0  0  0  0  0  0  0  0  0  0
   31.9730   34.5670   27.6450 O   0  0  0  0  0  0  0  0  0  0  0  0
   32.3350   32.1770   27.4140 O   0  0  0  0  0  0  0  0  0  0  0  0
   30.8320   33.3440   25.5900 C   0  0  0  0  0  0  0  0  0  0  0  0
   31.0330   32.6270   24.7510 H   0  0  0  0  0  0  0  0  0  0  0  0
   29.9030   32.9890   26.1030 H   0  0  0  0  0  0  0  0  0  0  0  0
   30.5760   34.3270   25.1130 H   0  0  0  0  0  0  0  0  0  0  0  0
  1  3  2  0  0  0  0
  1  7  1  0  0  0  0
  1 21  1  0  0  0  0
  2 12  1  0  0  0  0
  2 17  2  0  0  0  0
  2 18  1  0  0  0  0
  3 13  1  0  0  0  0
  3 14  1  0  0  0  0
  4 16  2  0  0  0  0
  4 19  1  0  0  0  0
  4 20  1  0  0  0  0
  5  6  1  0  0  0  0
  5 10  1  0  0  0  0
  5 11  2  0  0  0  0
  6 12  2  0  0  0  0
  6 22  1  0  0  0  0
  7  8  2  0  0  0  0
  7 27  1  0  0  0  0
  8  9  1  0  0  0  0
  8 23  1  0  0  0  0
  9 13  2  0  0  0  0
  9 24  1  0  0  0  0
 10 18  1  0  0  0  0
 10 19  2  0  0  0  0
 11 16  1  0  0  0  0
 11 25  1  0  0  0  0
 12 15  1  0  0  0  0
 13 15  1  0  0  0  0
 18 43  1  0  0  0  0
 20 26  1  0  0  0  0
 20 30  1  0  0  0  0
 28 29  1  0  0  0  0
 28 33  1  0  0  0  0
 28 34  1  0  0  0  0
 28 35  1  0  0  0  0
 29 30  1  0  0  0  0
 29 36  1  0  0  0  0
 29 37  1  0  0  0  0
 30 31  1  0  0  0  0
 30 38  1  0  0  0  0
 31 32  1  0  0  0  0
 31 39  1  0  0  0  0
 31 40  1  0  0  0  0
 32 33  1  0  0  0  0
 32 41  1  0  0  0  0
 32 42  1  0  0  0  0
 43 44  1  0  0  0  0
 43 45  1  0  0  0  0
 43 46  1  0  0  0  0
 46 47  1  0  0  0  0
 46 48  1  0  0  0  0
 46 49  1  0  0  0  0
 49 50  1  0  0  0  0
 49 51  1  0  0  0  0
 49 52  1  0  0  0  0
 52 53  2  0  0  0  0
 52 54  2  0  0  0  0
 52 55  1  0  0  0  0
 55 56  1  0  0  0  0
 55 57  1  0  0  0  0
 55 58  1  0  0  0  0
M  END
$$$$
