29
 OpenBabel02232411153D
Structure written by MMmdl.
 56 59  0  0  0  0  0  0  0  0999 V2000
    1.6500   28.9730    6.8140 C   0  0  0  0  0  0  0  0  0  0  0  0
   -1.7580   31.6110    8.0700 C   0  0  0  0  0  0  0  0  0  0  0  0
   -0.3390   26.0880    8.8800 C   0  0  0  0  0  0  0  0  0  0  0  0
   -1.0480   25.3840   10.0430 C   0  0  0  0  0  0  0  0  0  0  0  0
   -0.8230   23.8650    9.8550 C   0  0  0  0  0  0  0  0  0  0  0  0
   -1.3740   23.0630   11.0410 C   0  0  0  0  0  0  0  0  0  0  0  0
   -0.8030   23.5620   12.3770 C   0  0  0  0  0  0  0  0  0  0  0  0
   -1.0720   25.0640   12.5670 C   0  0  0  0  0  0  0  0  0  0  0  0
   -0.5050   25.8810   11.3970 C   0  0  0  0  0  0  0  0  0  0  0  0
    4.1640   25.5220    8.0380 C   0  0  0  0  0  0  0  0  0  0  0  0
    5.0490   25.0260    7.0680 C   0  0  0  0  0  0  0  0  0  0  0  0
    5.2290   25.7430    5.8820 C   0  0  0  0  0  0  0  0  0  0  0  0
    4.5020   26.9010    5.6340 C   0  0  0  0  0  0  0  0  0  0  0  0
    0.9240   28.0160    7.5150 N   0  0  0  0  0  0  0  0  0  0  0  0
   -0.2500   28.3590    8.1070 C   0  0  0  0  0  0  0  0  0  0  0  0
   -0.9270   27.4550    8.8270 O   0  0  0  0  0  0  0  0  0  0  0  0
   -0.7460   29.6820    7.9730 C   0  0  0  0  0  0  0  0  0  0  0  0
   -1.8720   30.3430    8.4750 N   0  0  0  0  0  0  0  0  0  0  0  0
   -0.5600   31.8330    7.3030 N   0  0  0  0  0  0  0  0  0  0  0  0
    0.0860   30.6050    7.2190 C   0  0  0  0  0  0  0  0  0  0  0  0
    1.2730   30.2840    6.6030 N   0  0  0  0  0  0  0  0  0  0  0  0
    2.8640   28.5580    6.2620 N   0  0  0  0  0  0  0  0  0  0  0  0
    3.5780   27.3710    6.5940 C   0  0  0  0  0  0  0  0  0  0  0  0
    3.4420   26.6910    7.8180 C   0  0  0  0  0  0  0  0  0  0  0  0
   -2.4430   32.4230    8.2920 H   0  0  0  0  0  0  0  0  0  0  0  0
    0.7550   26.1680    9.0620 H   0  0  0  0  0  0  0  0  0  0  0  0
   -0.5680   25.6310    7.8960 H   0  0  0  0  0  0  0  0  0  0  0  0
   -2.1440   25.5960   10.0100 H   0  0  0  0  0  0  0  0  0  0  0  0
   -1.3330   23.5310    8.9240 H   0  0  0  0  0  0  0  0  0  0  0  0
    0.2720   23.6630    9.7630 H   0  0  0  0  0  0  0  0  0  0  0  0
   -2.4800   23.1610   11.0670 H   0  0  0  0  0  0  0  0  0  0  0  0
   -1.1130   21.9860   10.9130 H   0  0  0  0  0  0  0  0  0  0  0  0
   -1.2700   22.9950   13.2140 H   0  0  0  0  0  0  0  0  0  0  0  0
    0.2980   23.3870   12.3930 H   0  0  0  0  0  0  0  0  0  0  0  0
   -2.1690   25.2380   12.6600 H   0  0  0  0  0  0  0  0  0  0  0  0
   -0.5860   25.4030   13.5100 H   0  0  0  0  0  0  0  0  0  0  0  0
    0.6090   25.7920   11.4150 H   0  0  0  0  0  0  0  0  0  0  0  0
   -0.7760   26.9530   11.5320 H   0  0  0  0  0  0  0  0  0  0  0  0
    4.0280   24.9980    8.9940 H   0  0  0  0  0  0  0  0  0  0  0  0
    5.9410   25.4220    5.1150 H   0  0  0  0  0  0  0  0  0  0  0  0
    4.6540   27.4400    4.6980 H   0  0  0  0  0  0  0  0  0  0  0  0
   -0.2800   32.7060    6.8330 H   0  0  0  0  0  0  0  0  0  0  0  0
    3.3790   29.2050    5.6170 H   0  0  0  0  0  0  0  0  0  0  0  0
    2.7730   27.0610    8.5960 H   0  0  0  0  0  0  0  0  0  0  0  0
    5.9160   23.5840    7.4510 S   0  0  0  0  0  0  0  0  0  0  0  0
    6.9430   23.9690    8.4140 O   0  0  0  0  0  0  0  0  0  0  0  0
    4.9610   22.5400    7.8350 O   0  0  0  0  0  0  0  0  0  0  0  0
    6.7080   22.9240    6.0760 N   0  0  0  0  0  0  0  0  0  0  0  0
    5.8690   22.5820    4.9000 C   0  0  0  0  0  0  0  0  0  0  0  0
    4.8580   22.2270    5.2190 H   0  0  0  0  0  0  0  0  0  0  0  0
    5.7500   23.4340    4.1790 H   0  0  0  0  0  0  0  0  0  0  0  0
    6.3650   21.7360    4.3460 H   0  0  0  0  0  0  0  0  0  0  0  0
    8.0300   23.4920    5.7110 C   0  0  0  0  0  0  0  0  0  0  0  0
    8.3840   23.0490    4.7410 H   0  0  0  0  0  0  0  0  0  0  0  0
    8.0200   24.6060    5.5920 H   0  0  0  0  0  0  0  0  0  0  0  0
    8.7660   23.2010    6.5040 H   0  0  0  0  0  0  0  0  0  0  0  0
  1 14  2  0  0  0  0
  1 21  1  0  0  0  0
  1 22  1  0  0  0  0
  2 18  2  0  0  0  0
  2 19  1  0  0  0  0
  2 25  1  0  0  0  0
  3  4  1  0  0  0  0
  3 16  1  0  0  0  0
  3 26  1  0  0  0  0
  3 27  1  0  0  0  0
  4  5  1  0  0  0  0
  4  9  1  0  0  0  0
  4 28  1  0  0  0  0
  5  6  1  0  0  0  0
  5 29  1  0  0  0  0
  5 30  1  0  0  0  0
  6  7  1  0  0  0  0
  6 31  1  0  0  0  0
  6 32  1  0  0  0  0
  7  8  1  0  0  0  0
  7 33  1  0  0  0  0
  7 34  1  0  0  0  0
  8  9  1  0  0  0  0
  8 35  1  0  0  0  0
  8 36  1  0  0  0  0
  9 37  1  0  0  0  0
  9 38  1  0  0  0  0
 10 11  2  0  0  0  0
 10 24  1  0  0  0  0
 10 39  1  0  0  0  0
 11 12  1  0  0  0  0
 11 45  1  0  0  0  0
 12 13  2  0  0  0  0
 12 40  1  0  0  0  0
 13 23  1  0  0  0  0
 13 41  1  0  0  0  0
 14 15  1  0  0  0  0
 15 16  1  0  0  0  0
 15 17  2  0  0  0  0
 17 18  1  0  0  0  0
 17 20  1  0  0  0  0
 19 20  1  0  0  0  0
 19 42  1  0  0  0  0
 20 21  2  0  0  0  0
 22 23  1  0  0  0  0
 22 43  1  0  0  0  0
 23 24  2  0  0  0  0
 24 44  1  0  0  0  0
 45 46  2  0  0  0  0
 45 47  2  0  0  0  0
 45 48  1  0  0  0  0
 48 49  1  0  0  0  0
 48 53  1  0  0  0  0
 49 50  1  0  0  0  0
 49 51  1  0  0  0  0
 49 52  1  0  0  0  0
 53 54  1  0  0  0  0
 53 55  1  0  0  0  0
 53 56  1  0  0  0  0
M  END
$$$$
