18659-1
 OpenBabel02232411163D
Structure written by MMmdl.
 50 51  0  0  0  0  0  0  0  0999 V2000
   22.6580   13.9070   28.8510 C   0  0  0  0  0  0  0  0  0  0  0  0
   23.0190   13.6920   30.2330 O   0  0  0  0  0  0  0  0  0  0  0  0
   23.9250   12.5990   30.4430 C   0  0  0  0  0  0  0  0  0  0  0  0
   23.2670   11.2150   30.3400 C   0  0  0  0  0  0  0  0  0  0  0  0
   22.1210   11.2820   31.2640 O   0  0  0  0  0  0  0  0  0  0  0  0
   21.5010   10.1270   31.5990 C   0  0  0  0  0  0  0  0  0  0  0  0
   21.9630    8.9490   31.1190 N   0  0  0  0  0  0  0  0  0  0  0  0
   21.2480    7.8040   31.4430 C   0  0  0  0  0  0  0  0  0  0  0  0
   20.1130    7.8300   32.2490 C   0  0  0  0  0  0  0  0  0  0  0  0
   19.6390    9.0710   32.7490 C   0  0  0  0  0  0  0  0  0  0  0  0
   18.5010    9.1010   33.5150 N   0  0  0  0  0  0  0  0  0  0  0  0
   20.3450   10.2730   32.4230 C   0  0  0  0  0  0  0  0  0  0  0  0
   19.9440   11.5670   32.8190 C   0  0  0  0  0  0  0  0  0  0  0  0
   19.6620   12.6560   33.1000 N   0  0  0  0  0  0  0  0  0  0  0  0
   21.8010    6.6490   30.8480 N   0  0  0  0  0  0  0  0  0  0  0  0
   21.2060    5.3670   30.7770 C   0  0  0  0  0  0  0  0  0  0  0  0
   20.1440    5.1060   31.3000 O   0  0  0  0  0  0  0  0  0  0  0  0
   21.9970    4.3850   29.9230 C   0  0  0  0  0  0  0  0  0  0  0  0
   23.3260    4.0350   30.5240 C   0  0  0  0  0  0  0  0  0  0  0  0
   24.4570    4.8570   30.2980 C   0  0  0  0  0  0  0  0  0  0  0  0
   24.1900    5.9370   29.4630 O   0  0  0  0  0  0  0  0  0  0  0  0
   25.2120    6.9610   29.3400 C   0  0  0  0  0  0  0  0  0  0  0  0
   25.7050    4.5620   30.8590 C   0  0  0  0  0  0  0  0  0  0  0  0
   25.8480    3.4300   31.6560 C   0  0  0  0  0  0  0  0  0  0  0  0
   24.7320    2.5970   31.8680 C   0  0  0  0  0  0  0  0  0  0  0  0
   23.4810    2.8860   31.3050 C   0  0  0  0  0  0  0  0  0  0  0  0
   25.0150    1.5210   32.6850 O   0  0  0  0  0  0  0  0  0  0  0  0
   24.0170    0.4740   32.7940 C   0  0  0  0  0  0  0  0  0  0  0  0
   23.5730   14.0640   28.2350 H   0  0  0  0  0  0  0  0  0  0  0  0
   22.0690   13.0450   28.4750 H   0  0  0  0  0  0  0  0  0  0  0  0
   22.0490   14.8360   28.9130 H   0  0  0  0  0  0  0  0  0  0  0  0
   24.2760   12.7990   31.4840 H   0  0  0  0  0  0  0  0  0  0  0  0
   24.7750   12.6360   29.7150 H   0  0  0  0  0  0  0  0  0  0  0  0
   22.8620   10.9970   29.3270 H   0  0  0  0  0  0  0  0  0  0  0  0
   23.9790   10.4190   30.6680 H   0  0  0  0  0  0  0  0  0  0  0  0
   19.5680    6.9130   32.4850 H   0  0  0  0  0  0  0  0  0  0  0  0
   18.0060    8.2260   33.7740 H   0  0  0  0  0  0  0  0  0  0  0  0
   18.1030    9.9810   33.8420 H   0  0  0  0  0  0  0  0  0  0  0  0
   22.7150    6.7960   30.3500 H   0  0  0  0  0  0  0  0  0  0  0  0
   21.3850    3.4570   29.7860 H   0  0  0  0  0  0  0  0  0  0  0  0
   22.1640    4.8540   28.9150 H   0  0  0  0  0  0  0  0  0  0  0  0
   26.0870    6.5490   28.7930 H   0  0  0  0  0  0  0  0  0  0  0  0
   24.6820    7.7330   28.7360 H   0  0  0  0  0  0  0  0  0  0  0  0
   25.4920    7.3560   30.3400 H   0  0  0  0  0  0  0  0  0  0  0  0
   26.5760    5.1980   30.6770 H   0  0  0  0  0  0  0  0  0  0  0  0
   26.8170    3.1900   32.1020 H   0  0  0  0  0  0  0  0  0  0  0  0
   22.6290    2.2250   31.4720 H   0  0  0  0  0  0  0  0  0  0  0  0
   24.5470   -0.2760   33.4290 H   0  0  0  0  0  0  0  0  0  0  0  0
   23.1090    0.8580   33.3040 H   0  0  0  0  0  0  0  0  0  0  0  0
   23.7930    0.0560   31.7880 H   0  0  0  0  0  0  0  0  0  0  0  0
  1  2  1  0  0  0  0
  1 29  1  0  0  0  0
  1 30  1  0  0  0  0
  1 31  1  0  0  0  0
  2  3  1  0  0  0  0
  3  4  1  0  0  0  0
  3 32  1  0  0  0  0
  3 33  1  0  0  0  0
  4  5  1  0  0  0  0
  4 34  1  0  0  0  0
  4 35  1  0  0  0  0
  5  6  1  0  0  0  0
  6 12  2  0  0  0  0
  6  7  1  0  0  0  0
  7  8  2  0  0  0  0
  8  9  1  0  0  0  0
  8 15  1  0  0  0  0
  9 10  2  0  0  0  0
  9 36  1  0  0  0  0
 10 11  1  0  0  0  0
 10 12  1  0  0  0  0
 11 37  1  0  0  0  0
 11 38  1  0  0  0  0
 12 13  1  0  0  0  0
 13 14  3  0  0  0  0
 15 16  1  0  0  0  0
 15 39  1  0  0  0  0
 16 17  2  0  0  0  0
 16 18  1  0  0  0  0
 18 19  1  0  0  0  0
 18 40  1  0  0  0  0
 18 41  1  0  0  0  0
 19 26  2  0  0  0  0
 19 20  1  0  0  0  0
 20 21  1  0  0  0  0
 20 23  2  0  0  0  0
 21 22  1  0  0  0  0
 22 42  1  0  0  0  0
 22 43  1  0  0  0  0
 22 44  1  0  0  0  0
 23 24  1  0  0  0  0
 23 45  1  0  0  0  0
 24 25  2  0  0  0  0
 24 46  1  0  0  0  0
 25 26  1  0  0  0  0
 25 27  1  0  0  0  0
 26 47  1  0  0  0  0
 27 28  1  0  0  0  0
 28 48  1  0  0  0  0
 28 49  1  0  0  0  0
 28 50  1  0  0  0  0
M  END
$$$$
