47
 OpenBabel02232411163D
Structure written by MMmdl.
 43 46  0  0  0  0  0  0  0  0999 V2000
    4.1990  -50.1230    6.2170 O   0  0  0  0  0  0  0  0  0  0  0  0
    3.3800  -49.3290    6.7180 C   0  0  0  0  0  0  0  0  0  0  0  0
    3.6260  -48.3160    7.3800 O   0  5  0  0  0  0  0  0  0  0  0  0
    1.9010  -49.6980    6.4780 C   0  0  0  0  0  0  0  0  0  0  0  0
    0.0900  -51.0960    6.4970 C   0  0  0  0  0  0  0  0  0  0  0  0
   -0.8280  -52.1320    6.7340 C   0  0  0  0  0  0  0  0  0  0  0  0
   -2.1320  -51.9440    6.3000 C   0  0  0  0  0  0  0  0  0  0  0  0
   -2.5080  -50.7720    5.6040 C   0  0  0  0  0  0  0  0  0  0  0  0
   -1.5940  -49.7630    5.3310 C   0  0  0  0  0  0  0  0  0  0  0  0
   -0.2830  -49.8750    5.8230 C   0  0  0  0  0  0  0  0  0  0  0  0
    0.8660  -48.9950    5.8690 C   0  0  0  0  0  0  0  0  0  0  0  0
    0.8510  -47.5700    5.4370 C   0  0  0  0  0  0  0  0  0  0  0  0
    0.2190  -46.6360    6.4960 C   0  0  0  0  0  0  0  0  0  0  0  0
   -1.2260  -47.0510    6.7480 C   0  0  0  0  0  0  0  0  0  0  0  0
   -1.7600  -46.2190    7.8450 O   0  0  0  0  0  0  0  0  0  0  0  0
   -3.0620  -45.8210    7.6910 C   0  0  0  0  0  0  0  0  0  0  0  0
   -5.2180  -45.7020    8.7970 C   0  0  0  0  0  0  0  0  0  0  0  0
   -3.9180  -46.1200    8.8080 C   0  0  0  0  0  0  0  0  0  0  0  0
   -0.5370  -53.0480    7.2500 H   0  0  0  0  0  0  0  0  0  0  0  0
   -2.8880  -52.7060    6.4920 H   0  0  0  0  0  0  0  0  0  0  0  0
   -3.5430  -50.6630    5.2790 H   0  0  0  0  0  0  0  0  0  0  0  0
   -1.9060  -48.9030    4.7390 H   0  0  0  0  0  0  0  0  0  0  0  0
    0.2490  -47.4760    4.4990 H   0  0  0  0  0  0  0  0  0  0  0  0
    1.8860  -47.2050    5.2270 H   0  0  0  0  0  0  0  0  0  0  0  0
    0.7930  -46.6910    7.4500 H   0  0  0  0  0  0  0  0  0  0  0  0
    0.2450  -45.5830    6.1310 H   0  0  0  0  0  0  0  0  0  0  0  0
   -1.3060  -48.0690    7.1950 H   0  0  0  0  0  0  0  0  0  0  0  0
   -1.8580  -46.9360    5.8440 H   0  0  0  0  0  0  0  0  0  0  0  0
   -3.5080  -46.6850    9.6500 H   0  0  0  0  0  0  0  0  0  0  0  0
   -3.5270  -45.1470    6.5810 C   0  0  0  0  0  0  0  0  0  0  0  0
   -5.8970  -45.9200    9.6290 H   0  0  0  0  0  0  0  0  0  0  0  0
   -4.8760  -44.7010    6.5570 C   0  0  0  0  0  0  0  0  0  0  0  0
   -5.7340  -44.9860    7.6600 C   0  0  0  0  0  0  0  0  0  0  0  0
   -7.0750  -44.6320    7.6580 N   0  0  0  0  0  0  0  0  0  0  0  0
   -7.5610  -44.0170    6.5820 C   0  0  0  0  0  0  0  0  0  0  0  0
   -6.7590  -43.6750    5.4450 C   0  0  0  0  0  0  0  0  0  0  0  0
   -5.4300  -44.0090    5.4340 C   0  0  0  0  0  0  0  0  0  0  0  0
   -8.6300  -43.7700    6.5740 H   0  0  0  0  0  0  0  0  0  0  0  0
   -7.2210  -43.1590    4.6110 H   0  0  0  0  0  0  0  0  0  0  0  0
   -4.7910  -43.7660    4.5810 H   0  0  0  0  0  0  0  0  0  0  0  0
   -2.9080  -44.9470    5.7090 H   0  0  0  0  0  0  0  0  0  0  0  0
    1.4390  -50.9690    6.8660 N   0  0  0  0  0  0  0  0  0  0  0  0
    1.9640  -51.7100    7.3180 H   0  0  0  0  0  0  0  0  0  0  0  0
  1  2  2  0  0  0  0
  2  3  1  0  0  0  0
  2  4  1  0  0  0  0
  4 11  2  0  0  0  0
  4 42  1  0  0  0  0
  5  6  2  0  0  0  0
  5 10  1  0  0  0  0
  5 42  1  0  0  0  0
  6  7  1  0  0  0  0
  6 19  1  0  0  0  0
  7  8  2  0  0  0  0
  7 20  1  0  0  0  0
  8  9  1  0  0  0  0
  8 21  1  0  0  0  0
  9 10  2  0  0  0  0
  9 22  1  0  0  0  0
 10 11  1  0  0  0  0
 11 12  1  0  0  0  0
 12 23  1  0  0  0  0
 12 24  1  0  0  0  0
 12 13  1  0  0  0  0
 13 14  1  0  0  0  0
 13 25  1  0  0  0  0
 13 26  1  0  0  0  0
 14 15  1  0  0  0  0
 14 27  1  0  0  0  0
 14 28  1  0  0  0  0
 15 16  1  0  0  0  0
 16 18  2  0  0  0  0
 16 30  1  0  0  0  0
 17 18  1  0  0  0  0
 17 31  1  0  0  0  0
 17 33  2  0  0  0  0
 18 29  1  0  0  0  0
 30 32  2  0  0  0  0
 30 41  1  0  0  0  0
 32 33  1  0  0  0  0
 32 37  1  0  0  0  0
 33 34  1  0  0  0  0
 34 35  2  0  0  0  0
 35 36  1  0  0  0  0
 35 38  1  0  0  0  0
 36 37  2  0  0  0  0
 36 39  1  0  0  0  0
 37 40  1  0  0  0  0
 42 43  1  0  0  0  0
M  CHG  1   3  -1
M  END
$$$$
