p38a_2u
 OpenBabel02232411163D
Structure written by MMmdl.
 64 68  0  0  0  0  0  0  0  0999 V2000
   38.2040   36.4570   17.2810 C   0  0  0  0  0  0  0  0  0  0  0  0
   34.5080   35.1920   21.4690 C   0  0  0  0  0  0  0  0  0  0  0  0
   37.4310   36.0480   18.3650 C   0  0  0  0  0  0  0  0  0  0  0  0
   34.1020   39.3550   23.9000 C   0  0  0  0  0  0  0  0  0  0  0  0
   34.6600   38.0680   21.5260 C   0  0  0  0  0  0  0  0  0  0  0  0
   35.0270   37.3700   20.3240 C   0  0  0  0  0  0  0  0  0  0  0  0
   37.5410   36.5790   16.0530 C   0  0  0  0  0  0  0  0  0  0  0  0
   36.1860   36.2870   15.8780 C   0  0  0  0  0  0  0  0  0  0  0  0
   35.4330   35.8720   16.9820 C   0  0  0  0  0  0  0  0  0  0  0  0
   34.3060   37.3360   22.6960 C   0  0  0  0  0  0  0  0  0  0  0  0
   34.6500   39.4860   21.6250 C   0  0  0  0  0  0  0  0  0  0  0  0
   34.9920   36.0190   20.3260 C   0  0  0  0  0  0  0  0  0  0  0  0
   36.0600   35.7450   18.2250 C   0  0  0  0  0  0  0  0  0  0  0  0
   37.9870   35.9390   19.5650 F   0  0  0  0  0  0  0  0  0  0  0  0
   35.3460   35.1640   19.2820 O   0  0  0  0  0  0  0  0  0  0  0  0
   34.3860   40.1410   22.7650 N   0  0  0  0  0  0  0  0  0  0  0  0
   34.3570   33.9900   21.4270 O   0  0  0  0  0  0  0  0  0  0  0  0
   34.2070   35.9290   22.6680 N   0  0  0  0  0  0  0  0  0  0  0  0
   34.0480   37.9750   23.8800 N   0  0  0  0  0  0  0  0  0  0  0  0
   33.8050   40.0010   25.0760 N   0  0  0  0  0  0  0  0  0  0  0  0
   39.2640   36.7060   17.3900 H   0  0  0  0  0  0  0  0  0  0  0  0
   35.3350   37.9580   19.4560 H   0  0  0  0  0  0  0  0  0  0  0  0
   35.7040   36.3930   14.9020 H   0  0  0  0  0  0  0  0  0  0  0  0
   34.3640   35.6650   16.8680 H   0  0  0  0  0  0  0  0  0  0  0  0
   34.8600   40.0930   20.7300 H   0  0  0  0  0  0  0  0  0  0  0  0
   33.9410   41.0270   25.1530 H   0  0  0  0  0  0  0  0  0  0  0  0
   38.2320   37.0330   15.0100 F   0  0  0  0  0  0  0  0  0  0  0  0
   32.5880   39.4250   28.6540 C   0  0  0  0  0  0  0  0  0  0  0  0
   32.7090   40.1000   27.2820 C   0  0  0  0  0  0  0  0  0  0  0  0
   33.6270   39.2650   26.3660 C   0  0  0  0  0  0  0  0  0  0  0  0
   34.9890   39.0210   27.0520 C   0  0  0  0  0  0  0  0  0  0  0  0
   34.7670   38.3960   28.4360 C   0  0  0  0  0  0  0  0  0  0  0  0
   33.8840   39.1980   29.2540 O   0  0  0  0  0  0  0  0  0  0  0  0
   32.0490   38.4540   28.5750 H   0  0  0  0  0  0  0  0  0  0  0  0
   32.1050   40.1070   29.3920 H   0  0  0  0  0  0  0  0  0  0  0  0
   33.1300   41.1260   27.4130 H   0  0  0  0  0  0  0  0  0  0  0  0
   31.7000   40.1940   26.8160 H   0  0  0  0  0  0  0  0  0  0  0  0
   33.1330   38.2750   26.1490 H   0  0  0  0  0  0  0  0  0  0  0  0
   35.6040   38.3240   26.4340 H   0  0  0  0  0  0  0  0  0  0  0  0
   35.5400   39.9850   27.1530 H   0  0  0  0  0  0  0  0  0  0  0  0
   34.3430   37.3700   28.3440 H   0  0  0  0  0  0  0  0  0  0  0  0
   35.7080   38.3990   29.0330 H   0  0  0  0  0  0  0  0  0  0  0  0
   34.1990   33.0900   25.2650 C   0  0  0  0  0  0  0  0  0  0  0  0
   34.8140   34.2690   24.4700 C   0  0  0  0  0  0  0  0  0  0  0  0
   33.7280   35.2080   23.9130 C   0  0  0  0  0  0  0  0  0  0  0  0
   32.4210   34.4470   23.6330 C   0  0  0  0  0  0  0  0  0  0  0  0
   31.8460   33.9320   24.9680 C   0  0  0  0  0  0  0  0  0  0  0  0
   34.9490   32.8150   26.0520 H   0  0  0  0  0  0  0  0  0  0  0  0
   34.0540   32.2220   24.5700 H   0  0  0  0  0  0  0  0  0  0  0  0
   35.4400   33.8350   23.6580 H   0  0  0  0  0  0  0  0  0  0  0  0
   35.4750   34.8610   25.1500 H   0  0  0  0  0  0  0  0  0  0  0  0
   33.5120   35.9880   24.7050 H   0  0  0  0  0  0  0  0  0  0  0  0
   31.6670   35.1250   23.1650 H   0  0  0  0  0  0  0  0  0  0  0  0
   32.6100   33.5940   22.9380 H   0  0  0  0  0  0  0  0  0  0  0  0
   31.3230   34.7850   25.4850 H   0  0  0  0  0  0  0  0  0  0  0  0
   31.1130   33.1170   24.7310 H   0  0  0  0  0  0  0  0  0  0  0  0
   32.9090   33.4580   25.9150 N   0  0  0  0  0  0  0  0  0  0  0  0
   32.3440   32.6080   27.3050 S   0  0  0  0  0  0  0  0  0  0  0  0
   31.2780   31.6700   26.8920 O   0  0  0  0  0  0  0  0  0  0  0  0
   31.8350   33.6060   28.2640 O   0  0  0  0  0  0  0  0  0  0  0  0
   33.6880   31.7480   27.9790 C   0  0  0  0  0  0  0  0  0  0  0  0
   34.5270   32.4280   28.2870 H   0  0  0  0  0  0  0  0  0  0  0  0
   33.3870   31.2030   28.9190 H   0  0  0  0  0  0  0  0  0  0  0  0
   34.0990   30.9620   27.2950 H   0  0  0  0  0  0  0  0  0  0  0  0
  1  3  2  0  0  0  0
  1  7  1  0  0  0  0
  1 21  1  0  0  0  0
  2 12  1  0  0  0  0
  2 17  2  0  0  0  0
  2 18  1  0  0  0  0
  3 13  1  0  0  0  0
  3 14  1  0  0  0  0
  4 16  2  0  0  0  0
  4 19  1  0  0  0  0
  4 20  1  0  0  0  0
  5  6  1  0  0  0  0
  5 10  1  0  0  0  0
  5 11  2  0  0  0  0
  6 12  2  0  0  0  0
  6 22  1  0  0  0  0
  7  8  2  0  0  0  0
  7 27  1  0  0  0  0
  8  9  1  0  0  0  0
  8 23  1  0  0  0  0
  9 13  2  0  0  0  0
  9 24  1  0  0  0  0
 10 18  1  0  0  0  0
 10 19  2  0  0  0  0
 11 16  1  0  0  0  0
 11 25  1  0  0  0  0
 12 15  1  0  0  0  0
 13 15  1  0  0  0  0
 18 45  1  0  0  0  0
 20 26  1  0  0  0  0
 20 30  1  0  0  0  0
 28 29  1  0  0  0  0
 28 33  1  0  0  0  0
 28 34  1  0  0  0  0
 28 35  1  0  0  0  0
 29 30  1  0  0  0  0
 29 36  1  0  0  0  0
 29 37  1  0  0  0  0
 30 31  1  0  0  0  0
 30 38  1  0  0  0  0
 31 32  1  0  0  0  0
 31 39  1  0  0  0  0
 31 40  1  0  0  0  0
 32 33  1  0  0  0  0
 32 41  1  0  0  0  0
 32 42  1  0  0  0  0
 43 44  1  0  0  0  0
 43 48  1  0  0  0  0
 43 49  1  0  0  0  0
 43 57  1  0  0  0  0
 44 45  1  0  0  0  0
 44 50  1  0  0  0  0
 44 51  1  0  0  0  0
 45 46  1  0  0  0  0
 45 52  1  0  0  0  0
 46 47  1  0  0  0  0
 46 53  1  0  0  0  0
 46 54  1  0  0  0  0
 47 55  1  0  0  0  0
 47 56  1  0  0  0  0
 47 57  1  0  0  0  0
 57 58  1  0  0  0  0
 58 59  2  0  0  0  0
 58 60  2  0  0  0  0
 58 61  1  0  0  0  0
 61 62  1  0  0  0  0
 61 63  1  0  0  0  0
 61 64  1  0  0  0  0
M  END
$$$$
