18632-1
                    3D
 Schrodinger Suite 2022-3.
 42 43  0  0  1  0  0  0  0  0999 V2000
   25.6430    5.0400   29.6880 C   0  0  0  0  0  0  0  0  0  0  0  0
   24.2480    5.0100   29.5370 C   0  0  0  0  0  0  0  0  0  0  0  0
   23.4680    4.2040   30.3740 C   0  0  0  0  0  0  0  0  0  0  0  0
   24.0780    3.4060   31.3540 C   0  0  0  0  0  0  0  0  0  0  0  0
   25.4710    3.4470   31.4840 C   0  0  0  0  0  0  0  0  0  0  0  0
   26.2710    4.2670   30.6560 C   0  0  0  0  0  0  0  0  0  0  0  0
   21.9680    4.1760   30.2220 C   0  0  0  0  0  0  0  0  0  0  0  0
   21.2070    5.2470   30.9830 C   0  0  0  0  0  0  0  0  0  0  0  0
   21.8270    6.5160   31.0390 N   0  0  0  0  0  0  0  0  0  0  0  0
   21.2520    7.7000   31.5620 C   0  0  0  0  0  0  0  0  0  0  0  0
   20.1070    5.0500   31.4580 O   0  0  0  0  0  0  0  0  0  0  0  0
   22.0010    8.8200   31.2380 N   0  0  0  0  0  0  0  0  0  0  0  0
   21.5260   10.0250   31.6300 C   0  0  0  0  0  0  0  0  0  0  0  0
   20.3240   10.2170   32.3770 C   0  0  0  0  0  0  0  0  0  0  0  0
   19.5970    9.0370   32.7310 C   0  0  0  0  0  0  0  0  0  0  0  0
   20.0780    7.7690   32.3040 C   0  0  0  0  0  0  0  0  0  0  0  0
   26.2170    2.7250   32.3840 O   0  0  0  0  0  0  0  0  0  0  0  0
   25.5260    1.8420   33.3060 C   0  0  0  0  0  0  0  0  0  0  0  0
   18.4400    9.1060   33.4650 N   0  0  0  0  0  0  0  0  0  0  0  0
   19.9080   11.5290   32.6890 C   0  0  0  0  0  0  0  0  0  0  0  0
   22.1890   11.1510   31.2900 O   0  0  0  0  0  0  0  0  0  0  0  0
   23.4680   11.0580   30.5550 C   0  0  0  0  0  0  0  0  0  0  0  0
   23.2280   10.7880   29.0850 C   0  0  0  0  0  0  0  0  0  0  0  0
   19.6120   12.6300   32.9030 N   0  0  0  0  0  0  0  0  0  0  0  0
   26.2410    5.6850   29.0350 H   0  0  0  0  0  0  0  0  0  0  0  0
   23.4730    2.7570   31.9830 H   0  0  0  0  0  0  0  0  0  0  0  0
   19.5070    6.8700   32.5500 H   0  0  0  0  0  0  0  0  0  0  0  0
   21.5920    3.1720   30.5650 H   0  0  0  0  0  0  0  0  0  0  0  0
   21.6920    4.2940   29.1400 H   0  0  0  0  0  0  0  0  0  0  0  0
   22.7530    6.6410   30.5840 H   0  0  0  0  0  0  0  0  0  0  0  0
   24.8540    2.4280   33.9670 H   0  0  0  0  0  0  0  0  0  0  0  0
   24.9810    1.0510   32.7450 H   0  0  0  0  0  0  0  0  0  0  0  0
   26.3790    1.4060   33.8800 H   0  0  0  0  0  0  0  0  0  0  0  0
   17.9270    8.2430   33.7320 H   0  0  0  0  0  0  0  0  0  0  0  0
   18.0410   10.0010   33.7480 H   0  0  0  0  0  0  0  0  0  0  0  0
   24.1110   10.2830   31.0290 H   0  0  0  0  0  0  0  0  0  0  0  0
   23.8470   12.0930   30.7370 H   0  0  0  0  0  0  0  0  0  0  0  0
   22.8680    9.7450   28.9160 H   0  0  0  0  0  0  0  0  0  0  0  0
   22.4840   11.4960   28.6560 H   0  0  0  0  0  0  0  0  0  0  0  0
   24.1890   10.9150   28.5270 H   0  0  0  0  0  0  0  0  0  0  0  0
   27.3560    4.2880   30.7750 H   0  0  0  0  0  0  0  0  0  0  0  0
   23.7930    5.6290   28.7650 H   0  0  0  0  0  0  0  0  0  0  0  0
  1  2  1  0  0  0  0
  1  6  2  0  0  0  0
  1 25  1  0  0  0  0
  2  3  2  0  0  0  0
  2 42  1  0  0  0  0
  3  4  1  0  0  0  0
  3  7  1  0  0  0  0
  4  5  2  0  0  0  0
  4 26  1  0  0  0  0
  5  6  1  0  0  0  0
  5 17  1  0  0  0  0
  6 41  1  0  0  0  0
  7  8  1  0  0  0  0
  7 28  1  0  0  0  0
  7 29  1  0  0  0  0
  8  9  1  0  0  0  0
  8 11  2  0  0  0  0
  9 10  1  0  0  0  0
  9 30  1  0  0  0  0
 10 12  1  0  0  0  0
 10 16  2  0  0  0  0
 12 13  2  0  0  0  0
 13 14  1  0  0  0  0
 13 21  1  0  0  0  0
 14 15  2  0  0  0  0
 14 20  1  0  0  0  0
 15 16  1  0  0  0  0
 15 19  1  0  0  0  0
 16 27  1  0  0  0  0
 17 18  1  0  0  0  0
 18 31  1  0  0  0  0
 18 32  1  0  0  0  0
 18 33  1  0  0  0  0
 19 34  1  0  0  0  0
 19 35  1  0  0  0  0
 20 24  3  0  0  0  0
 21 22  1  0  0  0  0
 22 23  1  0  0  0  0
 22 36  1  0  0  0  0
 22 37  1  0  0  0  0
 23 38  1  0  0  0  0
 23 39  1  0  0  0  0
 23 40  1  0  0  0  0
M  END
$$$$
