p38a_2r
 OpenBabel02232411163D
Structure written by MMmdl.
 56 59  0  0  0  0  0  0  0  0999 V2000
   38.2310   36.5010   17.1870 C   0  0  0  0  0  0  0  0  0  0  0  0
   34.7420   35.1640   21.3440 C   0  0  0  0  0  0  0  0  0  0  0  0
   37.4230   36.0650   18.2320 C   0  0  0  0  0  0  0  0  0  0  0  0
   34.3400   39.2860   23.8420 C   0  0  0  0  0  0  0  0  0  0  0  0
   34.7480   38.0360   21.4150 C   0  0  0  0  0  0  0  0  0  0  0  0
   35.0010   37.3660   20.1700 C   0  0  0  0  0  0  0  0  0  0  0  0
   37.6040   36.6700   15.9440 C   0  0  0  0  0  0  0  0  0  0  0  0
   36.2540   36.3960   15.7190 C   0  0  0  0  0  0  0  0  0  0  0  0
   35.4650   35.9490   16.7850 C   0  0  0  0  0  0  0  0  0  0  0  0
   34.6270   37.2850   22.6230 C   0  0  0  0  0  0  0  0  0  0  0  0
   34.6290   39.4480   21.5170 C   0  0  0  0  0  0  0  0  0  0  0  0
   35.0320   36.0140   20.1590 C   0  0  0  0  0  0  0  0  0  0  0  0
   36.0530   35.7790   18.0410 C   0  0  0  0  0  0  0  0  0  0  0  0
   37.9400   35.9150   19.4450 F   0  0  0  0  0  0  0  0  0  0  0  0
   35.2870   35.1930   19.0590 O   0  0  0  0  0  0  0  0  0  0  0  0
   34.4260   40.0800   22.6820 N   0  0  0  0  0  0  0  0  0  0  0  0
   34.5570   33.9690   21.3250 O   0  0  0  0  0  0  0  0  0  0  0  0
   34.7110   35.8830   22.5970 N   0  0  0  0  0  0  0  0  0  0  0  0
   34.4170   37.9110   23.8300 N   0  0  0  0  0  0  0  0  0  0  0  0
   34.2230   39.9630   25.0410 N   0  0  0  0  0  0  0  0  0  0  0  0
   39.2890   36.7380   17.3340 H   0  0  0  0  0  0  0  0  0  0  0  0
   35.1750   37.9720   19.2780 H   0  0  0  0  0  0  0  0  0  0  0  0
   35.8020   36.5420   14.7360 H   0  0  0  0  0  0  0  0  0  0  0  0
   34.3990   35.7510   16.6290 H   0  0  0  0  0  0  0  0  0  0  0  0
   34.6900   40.0760   20.6110 H   0  0  0  0  0  0  0  0  0  0  0  0
   34.0620   40.9940   24.9980 H   0  0  0  0  0  0  0  0  0  0  0  0
   38.3270   37.1560   14.9370 F   0  0  0  0  0  0  0  0  0  0  0  0
   33.9520   37.5850   28.0680 C   0  0  0  0  0  0  0  0  0  0  0  0
   34.5560   38.1730   26.7890 C   0  0  0  0  0  0  0  0  0  0  0  0
   33.7200   39.3770   26.3220 C   0  0  0  0  0  0  0  0  0  0  0  0
   32.2190   39.0210   26.2140 C   0  0  0  0  0  0  0  0  0  0  0  0
   31.7390   38.3400   27.5010 C   0  0  0  0  0  0  0  0  0  0  0  0
   32.5730   37.2100   27.8430 O   0  0  0  0  0  0  0  0  0  0  0  0
   34.0070   38.3030   28.9170 H   0  0  0  0  0  0  0  0  0  0  0  0
   34.4270   36.6110   28.3270 H   0  0  0  0  0  0  0  0  0  0  0  0
   34.5590   37.3730   26.0070 H   0  0  0  0  0  0  0  0  0  0  0  0
   35.6070   38.4960   26.9740 H   0  0  0  0  0  0  0  0  0  0  0  0
   33.8430   40.2130   27.0760 H   0  0  0  0  0  0  0  0  0  0  0  0
   31.6310   39.9560   26.0470 H   0  0  0  0  0  0  0  0  0  0  0  0
   32.0490   38.3410   25.3520 H   0  0  0  0  0  0  0  0  0  0  0  0
   31.7370   39.0570   28.3540 H   0  0  0  0  0  0  0  0  0  0  0  0
   30.7410   37.8640   27.3620 H   0  0  0  0  0  0  0  0  0  0  0  0
   34.7700   35.1080   23.8700 C   0  0  0  0  0  0  0  0  0  0  0  0
   35.3420   34.1600   23.6820 H   0  0  0  0  0  0  0  0  0  0  0  0
   35.3430   35.7180   24.6230 H   0  0  0  0  0  0  0  0  0  0  0  0
   33.3720   34.7310   24.4820 C   0  0  0  0  0  0  0  0  0  0  0  0
   32.4480   35.8180   24.2810 O   0  0  0  0  0  0  0  0  0  0  0  0
   32.8580   36.6330   24.6600 H   0  0  0  0  0  0  0  0  0  0  0  0
   33.5360   34.5430   25.9990 C   0  0  0  0  0  0  0  0  0  0  0  0
   33.3720   35.5290   26.5010 H   0  0  0  0  0  0  0  0  0  0  0  0
   32.7860   33.8280   26.4010 H   0  0  0  0  0  0  0  0  0  0  0  0
   34.5450   34.1670   26.2730 H   0  0  0  0  0  0  0  0  0  0  0  0
   32.7380   33.5230   23.7970 C   0  0  0  0  0  0  0  0  0  0  0  0
   31.6710   33.4190   24.1060 H   0  0  0  0  0  0  0  0  0  0  0  0
   32.7800   33.6170   22.6900 H   0  0  0  0  0  0  0  0  0  0  0  0
   33.2800   32.5960   24.0990 H   0  0  0  0  0  0  0  0  0  0  0  0
  1  3  2  0  0  0  0
  1  7  1  0  0  0  0
  1 21  1  0  0  0  0
  2 12  1  0  0  0  0
  2 17  2  0  0  0  0
  2 18  1  0  0  0  0
  3 13  1  0  0  0  0
  3 14  1  0  0  0  0
  4 16  2  0  0  0  0
  4 19  1  0  0  0  0
  4 20  1  0  0  0  0
  5  6  1  0  0  0  0
  5 10  1  0  0  0  0
  5 11  2  0  0  0  0
  6 12  2  0  0  0  0
  6 22  1  0  0  0  0
  7  8  2  0  0  0  0
  7 27  1  0  0  0  0
  8  9  1  0  0  0  0
  8 23  1  0  0  0  0
  9 13  2  0  0  0  0
  9 24  1  0  0  0  0
 10 18  1  0  0  0  0
 10 19  2  0  0  0  0
 11 16  1  0  0  0  0
 11 25  1  0  0  0  0
 12 15  1  0  0  0  0
 13 15  1  0  0  0  0
 18 43  1  0  0  0  0
 20 26  1  0  0  0  0
 20 30  1  0  0  0  0
 28 29  1  0  0  0  0
 28 33  1  0  0  0  0
 28 34  1  0  0  0  0
 28 35  1  0  0  0  0
 29 30  1  0  0  0  0
 29 36  1  0  0  0  0
 29 37  1  0  0  0  0
 30 31  1  0  0  0  0
 30 38  1  0  0  0  0
 31 32  1  0  0  0  0
 31 39  1  0  0  0  0
 31 40  1  0  0  0  0
 32 33  1  0  0  0  0
 32 41  1  0  0  0  0
 32 42  1  0  0  0  0
 43 44  1  0  0  0  0
 43 45  1  0  0  0  0
 43 46  1  0  0  0  0
 46 47  1  0  0  0  0
 46 49  1  0  0  0  0
 46 53  1  0  0  0  0
 47 48  1  0  0  0  0
 49 50  1  0  0  0  0
 49 51  1  0  0  0  0
 49 52  1  0  0  0  0
 53 54  1  0  0  0  0
 53 55  1  0  0  0  0
 53 56  1  0  0  0  0
M  END
$$$$
