p38a_2o
 OpenBabel02232411163D
Structure written by MMmdl.
 55 58  0  0  0  0  0  0  0  0999 V2000
   38.2900   36.5460   17.1310 C   0  0  0  0  0  0  0  0  0  0  0  0
   34.5610   35.0980   21.2070 C   0  0  0  0  0  0  0  0  0  0  0  0
   37.5110   36.0840   18.1880 C   0  0  0  0  0  0  0  0  0  0  0  0
   33.9510   39.2160   23.6780 C   0  0  0  0  0  0  0  0  0  0  0  0
   34.6180   37.9820   21.3040 C   0  0  0  0  0  0  0  0  0  0  0  0
   35.0230   37.3070   20.1010 C   0  0  0  0  0  0  0  0  0  0  0  0
   37.6380   36.7070   15.9000 C   0  0  0  0  0  0  0  0  0  0  0  0
   36.2890   36.4040   15.6970 C   0  0  0  0  0  0  0  0  0  0  0  0
   35.5320   35.9260   16.7710 C   0  0  0  0  0  0  0  0  0  0  0  0
   34.2570   37.2240   22.4550 C   0  0  0  0  0  0  0  0  0  0  0  0
   34.5760   39.3970   21.4260 C   0  0  0  0  0  0  0  0  0  0  0  0
   35.0310   35.9550   20.0850 C   0  0  0  0  0  0  0  0  0  0  0  0
   36.1500   35.7560   18.0130 C   0  0  0  0  0  0  0  0  0  0  0  0
   38.0450   35.9500   19.3950 F   0  0  0  0  0  0  0  0  0  0  0  0
   35.4390   35.1240   19.0430 O   0  0  0  0  0  0  0  0  0  0  0  0
   34.2640   40.0260   22.5700 N   0  0  0  0  0  0  0  0  0  0  0  0
   34.4650   33.8920   21.1770 O   0  0  0  0  0  0  0  0  0  0  0  0
   34.2310   35.8170   22.4120 N   0  0  0  0  0  0  0  0  0  0  0  0
   33.9420   37.8350   23.6420 N   0  0  0  0  0  0  0  0  0  0  0  0
   33.5770   39.8420   24.8440 N   0  0  0  0  0  0  0  0  0  0  0  0
   39.3430   36.8090   17.2640 H   0  0  0  0  0  0  0  0  0  0  0  0
   35.3240   37.9160   19.2460 H   0  0  0  0  0  0  0  0  0  0  0  0
   35.8150   36.5520   14.7250 H   0  0  0  0  0  0  0  0  0  0  0  0
   34.4680   35.7070   16.6360 H   0  0  0  0  0  0  0  0  0  0  0  0
   34.8050   40.0300   20.5520 H   0  0  0  0  0  0  0  0  0  0  0  0
   33.6820   40.8700   24.9370 H   0  0  0  0  0  0  0  0  0  0  0  0
   38.3310   37.2120   14.8830 F   0  0  0  0  0  0  0  0  0  0  0  0
   32.1000   39.0100   28.2680 C   0  0  0  0  0  0  0  0  0  0  0  0
   32.2070   39.6760   26.8890 C   0  0  0  0  0  0  0  0  0  0  0  0
   33.4200   39.0980   26.1300 C   0  0  0  0  0  0  0  0  0  0  0  0
   34.7000   39.2400   26.9810 C   0  0  0  0  0  0  0  0  0  0  0  0
   34.4820   38.6060   28.3600 C   0  0  0  0  0  0  0  0  0  0  0  0
   33.3210   39.1540   29.0270 O   0  0  0  0  0  0  0  0  0  0  0  0
   31.8580   37.9270   28.1640 H   0  0  0  0  0  0  0  0  0  0  0  0
   31.3560   39.5310   28.9120 H   0  0  0  0  0  0  0  0  0  0  0  0
   32.3310   40.7780   27.0110 H   0  0  0  0  0  0  0  0  0  0  0  0
   31.2730   39.4880   26.3060 H   0  0  0  0  0  0  0  0  0  0  0  0
   33.2280   38.0120   25.9070 H   0  0  0  0  0  0  0  0  0  0  0  0
   35.5520   38.7320   26.4700 H   0  0  0  0  0  0  0  0  0  0  0  0
   34.9530   40.3230   27.0940 H   0  0  0  0  0  0  0  0  0  0  0  0
   34.3580   37.5020   28.2740 H   0  0  0  0  0  0  0  0  0  0  0  0
   35.3050   38.8770   29.0620 H   0  0  0  0  0  0  0  0  0  0  0  0
   33.7430   35.0500   23.6150 C   0  0  0  0  0  0  0  0  0  0  0  0
   34.1980   34.0230   23.5680 H   0  0  0  0  0  0  0  0  0  0  0  0
   34.1120   35.5870   24.5370 H   0  0  0  0  0  0  0  0  0  0  0  0
   32.2150   34.9730   23.6150 C   0  0  0  0  0  0  0  0  0  0  0  0
   31.8060   36.0180   23.4930 H   0  0  0  0  0  0  0  0  0  0  0  0
   31.8590   34.4090   22.7100 H   0  0  0  0  0  0  0  0  0  0  0  0
   31.5140   34.2490   25.0730 S   0  0  0  0  0  0  0  0  0  0  0  0
   32.5620   33.8910   26.0520 O   0  0  0  0  0  0  0  0  0  0  0  0
   30.7380   33.0440   24.7000 O   0  0  0  0  0  0  0  0  0  0  0  0
   30.4740   35.4940   25.6850 C   0  0  0  0  0  0  0  0  0  0  0  0
   29.6710   35.7810   24.9540 H   0  0  0  0  0  0  0  0  0  0  0  0
   29.9370   35.1970   26.6260 H   0  0  0  0  0  0  0  0  0  0  0  0
   31.0260   36.4360   25.9400 H   0  0  0  0  0  0  0  0  0  0  0  0
  1  3  2  0  0  0  0
  1  7  1  0  0  0  0
  1 21  1  0  0  0  0
  2 12  1  0  0  0  0
  2 17  2  0  0  0  0
  2 18  1  0  0  0  0
  3 13  1  0  0  0  0
  3 14  1  0  0  0  0
  4 16  2  0  0  0  0
  4 19  1  0  0  0  0
  4 20  1  0  0  0  0
  5  6  1  0  0  0  0
  5 10  1  0  0  0  0
  5 11  2  0  0  0  0
  6 12  2  0  0  0  0
  6 22  1  0  0  0  0
  7  8  2  0  0  0  0
  7 27  1  0  0  0  0
  8  9  1  0  0  0  0
  8 23  1  0  0  0  0
  9 13  2  0  0  0  0
  9 24  1  0  0  0  0
 10 18  1  0  0  0  0
 10 19  2  0  0  0  0
 11 16  1  0  0  0  0
 11 25  1  0  0  0  0
 12 15  1  0  0  0  0
 13 15  1  0  0  0  0
 18 43  1  0  0  0  0
 20 26  1  0  0  0  0
 20 30  1  0  0  0  0
 28 29  1  0  0  0  0
 28 33  1  0  0  0  0
 28 34  1  0  0  0  0
 28 35  1  0  0  0  0
 29 30  1  0  0  0  0
 29 36  1  0  0  0  0
 29 37  1  0  0  0  0
 30 31  1  0  0  0  0
 30 38  1  0  0  0  0
 31 32  1  0  0  0  0
 31 39  1  0  0  0  0
 31 40  1  0  0  0  0
 32 33  1  0  0  0  0
 32 41  1  0  0  0  0
 32 42  1  0  0  0  0
 43 44  1  0  0  0  0
 43 45  1  0  0  0  0
 43 46  1  0  0  0  0
 46 47  1  0  0  0  0
 46 48  1  0  0  0  0
 46 49  1  0  0  0  0
 49 50  2  0  0  0  0
 49 51  2  0  0  0  0
 49 52  1  0  0  0  0
 52 53  1  0  0  0  0
 52 54  1  0  0  0  0
 52 55  1  0  0  0  0
M  END
$$$$
