18637-1
 OpenBabel02232411163D
Structure written by MMmdl.
 53 54  0  0  0  0  0  0  0  0999 V2000
   23.2600   10.7270   29.0720 C   0  0  0  0  0  0  0  0  0  0  0  0
   23.5180   10.9830   30.5420 C   0  0  0  0  0  0  0  0  0  0  0  0
   22.2480   11.0990   31.2870 O   0  0  0  0  0  0  0  0  0  0  0  0
   21.5760    9.9740   31.6270 C   0  0  0  0  0  0  0  0  0  0  0  0
   22.0310    8.7750   31.2010 N   0  0  0  0  0  0  0  0  0  0  0  0
   21.2760    7.6530   31.5100 C   0  0  0  0  0  0  0  0  0  0  0  0
   20.1120    7.7180   32.2710 C   0  0  0  0  0  0  0  0  0  0  0  0
   19.6550    8.9800   32.7350 C   0  0  0  0  0  0  0  0  0  0  0  0
   18.5030    9.0490   33.4780 N   0  0  0  0  0  0  0  0  0  0  0  0
   20.3940   10.1620   32.4040 C   0  0  0  0  0  0  0  0  0  0  0  0
   20.0080   11.4690   32.7670 C   0  0  0  0  0  0  0  0  0  0  0  0
   19.7380   12.5660   33.0280 N   0  0  0  0  0  0  0  0  0  0  0  0
   21.8300    6.4850   30.9450 N   0  0  0  0  0  0  0  0  0  0  0  0
   21.2030    5.2200   30.8420 C   0  0  0  0  0  0  0  0  0  0  0  0
   20.1180    4.9940   31.3330 O   0  0  0  0  0  0  0  0  0  0  0  0
   21.9840    4.2210   30.0000 C   0  0  0  0  0  0  0  0  0  0  0  0
   23.3130    3.8580   30.5920 C   0  0  0  0  0  0  0  0  0  0  0  0
   24.4520    4.6570   30.3490 C   0  0  0  0  0  0  0  0  0  0  0  0
   24.1910    5.7440   29.5260 O   0  0  0  0  0  0  0  0  0  0  0  0
   25.2380    6.7340   29.3480 C   0  0  0  0  0  0  0  0  0  0  0  0
   25.7020    4.3440   30.8860 C   0  0  0  0  0  0  0  0  0  0  0  0
   25.8510    3.1950   31.6810 C   0  0  0  0  0  0  0  0  0  0  0  0
   24.7160    2.3640   31.9090 C   0  0  0  0  0  0  0  0  0  0  0  0
   23.4690    2.7070   31.3730 C   0  0  0  0  0  0  0  0  0  0  0  0
   24.9490    1.2560   32.7030 O   0  0  0  0  0  0  0  0  0  0  0  0
   24.0280    0.1430   32.5240 C   0  0  0  0  0  0  0  0  0  0  0  0
   27.1570    2.8860   32.1620 N   0  0  0  0  0  0  0  0  0  0  0  0
   27.4890    2.3300   33.4300 C   0  0  0  0  0  0  0  0  0  0  0  0
   26.6270    1.9730   34.2070 O   0  0  0  0  0  0  0  0  0  0  0  0
   28.9680    2.2310   33.6560 C   0  0  0  0  0  0  0  0  0  0  0  0
   22.8650    9.6970   28.9050 H   0  0  0  0  0  0  0  0  0  0  0  0
   22.5380   11.4620   28.6520 H   0  0  0  0  0  0  0  0  0  0  0  0
   24.2230   10.8240   28.5100 H   0  0  0  0  0  0  0  0  0  0  0  0
   23.9270   12.0050   30.7250 H   0  0  0  0  0  0  0  0  0  0  0  0
   24.1490   10.1890   31.0020 H   0  0  0  0  0  0  0  0  0  0  0  0
   19.5350    6.8200   32.4980 H   0  0  0  0  0  0  0  0  0  0  0  0
   18.1240    9.9430   33.7880 H   0  0  0  0  0  0  0  0  0  0  0  0
   17.9930    8.1890   33.7540 H   0  0  0  0  0  0  0  0  0  0  0  0
   22.7590    6.6170   30.4710 H   0  0  0  0  0  0  0  0  0  0  0  0
   21.3630    3.2990   29.8700 H   0  0  0  0  0  0  0  0  0  0  0  0
   22.1520    4.6830   28.9880 H   0  0  0  0  0  0  0  0  0  0  0  0
   25.5610    7.1390   30.3310 H   0  0  0  0  0  0  0  0  0  0  0  0
   26.0830    6.2850   28.7840 H   0  0  0  0  0  0  0  0  0  0  0  0
   24.7120    7.5100   28.7470 H   0  0  0  0  0  0  0  0  0  0  0  0
   26.5700    4.9750   30.6770 H   0  0  0  0  0  0  0  0  0  0  0  0
   22.6010    2.0660   31.5480 H   0  0  0  0  0  0  0  0  0  0  0  0
   24.5330   -0.6710   33.0940 H   0  0  0  0  0  0  0  0  0  0  0  0
   23.0390    0.3860   32.9690 H   0  0  0  0  0  0  0  0  0  0  0  0
   23.9480   -0.1220   31.4470 H   0  0  0  0  0  0  0  0  0  0  0  0
   27.9270    3.3010   31.6020 H   0  0  0  0  0  0  0  0  0  0  0  0
   29.2040    1.7910   34.6580 H   0  0  0  0  0  0  0  0  0  0  0  0
   29.4590    1.5860   32.8800 H   0  0  0  0  0  0  0  0  0  0  0  0
   29.4610    3.2370   33.6050 H   0  0  0  0  0  0  0  0  0  0  0  0
  1  2  1  0  0  0  0
  1 31  1  0  0  0  0
  1 32  1  0  0  0  0
  1 33  1  0  0  0  0
  2  3  1  0  0  0  0
  2 34  1  0  0  0  0
  2 35  1  0  0  0  0
  3  4  1  0  0  0  0
  4 10  2  0  0  0  0
  4  5  1  0  0  0  0
  5  6  2  0  0  0  0
  6  7  1  0  0  0  0
  6 13  1  0  0  0  0
  7  8  2  0  0  0  0
  7 36  1  0  0  0  0
  8  9  1  0  0  0  0
  8 10  1  0  0  0  0
  9 37  1  0  0  0  0
  9 38  1  0  0  0  0
 10 11  1  0  0  0  0
 11 12  3  0  0  0  0
 13 14  1  0  0  0  0
 13 39  1  0  0  0  0
 14 15  2  0  0  0  0
 14 16  1  0  0  0  0
 16 17  1  0  0  0  0
 16 40  1  0  0  0  0
 16 41  1  0  0  0  0
 17 24  2  0  0  0  0
 17 18  1  0  0  0  0
 18 19  1  0  0  0  0
 18 21  2  0  0  0  0
 19 20  1  0  0  0  0
 20 42  1  0  0  0  0
 20 43  1  0  0  0  0
 20 44  1  0  0  0  0
 21 22  1  0  0  0  0
 21 45  1  0  0  0  0
 22 23  2  0  0  0  0
 22 27  1  0  0  0  0
 23 24  1  0  0  0  0
 23 25  1  0  0  0  0
 24 46  1  0  0  0  0
 25 26  1  0  0  0  0
 26 47  1  0  0  0  0
 26 48  1  0  0  0  0
 26 49  1  0  0  0  0
 27 28  1  0  0  0  0
 27 50  1  0  0  0  0
 28 29  2  0  0  0  0
 28 30  1  0  0  0  0
 30 51  1  0  0  0  0
 30 52  1  0  0  0  0
 30 53  1  0  0  0  0
M  END
$$$$
