p38a_3fmk
 OpenBabel02232411163D
Structure written by MMmdl.
 46 49  0  0  1  0  0  0  0  0999 V2000
   35.6960   35.5690   16.8740 C   0  0  0  0  0  0  0  0  0  0  0  0
   36.3580   36.0560   15.7510 C   0  0  0  0  0  0  0  0  0  0  0  0
   34.0170   34.9880   23.7740 C   0  0  0  0  0  0  0  0  0  0  0  0
   38.2890   36.5570   17.1980 C   0  0  0  0  0  0  0  0  0  0  0  0
   34.7460   39.3060   21.5330 C   0  0  0  0  0  0  0  0  0  0  0  0
   33.7700   39.1320   26.2820 C   0  0  1  0  0  0  0  0  0  0  0  0
   32.6240   39.8270   27.0860 C   0  0  0  0  0  0  0  0  0  0  0  0
   34.1490   39.1420   23.7930 C   0  0  0  0  0  0  0  0  0  0  0  0
   34.6100   35.0220   21.3170 C   0  0  0  0  0  0  0  0  0  0  0  0
   35.1560   35.8550   20.2100 C   0  0  0  0  0  0  0  0  0  0  0  0
   35.2050   37.2060   20.2340 C   0  0  0  0  0  0  0  0  0  0  0  0
   36.2910   35.6060   18.1510 C   0  0  0  0  0  0  0  0  0  0  0  0
   37.5880   36.0980   18.3190 C   0  0  0  0  0  0  0  0  0  0  0  0
   34.7900   37.8910   21.4290 C   0  0  0  0  0  0  0  0  0  0  0  0
   34.4330   37.1440   22.5910 C   0  0  0  0  0  0  0  0  0  0  0  0
   33.7650   39.8050   24.9480 N   0  0  0  0  0  0  0  0  0  0  0  0
   37.6500   36.5580   15.9550 C   0  0  0  0  0  0  0  0  0  0  0  0
   38.2810   37.0970   14.9150 F   0  0  0  0  0  0  0  0  0  0  0  0
   34.4830   35.0440   16.7670 F   0  0  0  0  0  0  0  0  0  0  0  0
   35.5530   35.0050   19.1800 O   0  0  0  0  0  0  0  0  0  0  0  0
   34.3700   33.8370   21.2530 O   0  0  0  0  0  0  0  0  0  0  0  0
   34.3620   35.7440   22.5370 N   0  0  0  0  0  0  0  0  0  0  0  0
   34.1370   37.7650   23.7820 N   0  0  0  0  0  0  0  0  0  0  0  0
   34.4370   39.9430   22.6750 N   0  0  0  0  0  0  0  0  0  0  0  0
   35.1310   39.2920   26.9620 C   0  0  0  0  0  0  0  0  0  0  0  0
   32.2240   39.0220   28.2570 N   0  0  0  0  0  0  0  0  0  0  0  0
   32.6920   39.2470   29.5170 N   0  0  0  0  0  0  0  0  0  0  0  0
   32.1180   38.2670   30.2700 C   0  0  0  0  0  0  0  0  0  0  0  0
   31.3060   37.4570   29.4300 N   0  0  0  0  0  0  0  0  0  0  0  0
   31.3890   37.9310   28.2280 N   0  0  0  0  0  0  0  0  0  0  0  0
   35.8870   36.0710   14.7660 H   0  0  0  0  0  0  0  0  0  0  0  0
   34.7550   35.2340   24.5860 H   0  0  0  0  0  0  0  0  0  0  0  0
   32.9900   35.2760   24.1290 H   0  0  0  0  0  0  0  0  0  0  0  0
   34.0460   33.8860   23.5750 H   0  0  0  0  0  0  0  0  0  0  0  0
   39.3080   36.9390   17.3060 H   0  0  0  0  0  0  0  0  0  0  0  0
   34.9690   39.9320   20.6540 H   0  0  0  0  0  0  0  0  0  0  0  0
   33.5280   38.0400   26.1530 H   0  0  0  0  0  0  0  0  0  0  0  0
   32.9710   40.8430   27.4330 H   0  0  0  0  0  0  0  0  0  0  0  0
   31.7280   39.9560   26.4120 H   0  0  0  0  0  0  0  0  0  0  0  0
   35.5650   37.8080   19.3970 H   0  0  0  0  0  0  0  0  0  0  0  0
   38.0500   36.1550   19.3070 H   0  0  0  0  0  0  0  0  0  0  0  0
   33.9210   40.8330   24.9980 H   0  0  0  0  0  0  0  0  0  0  0  0
   35.9150   38.7560   26.3800 H   0  0  0  0  0  0  0  0  0  0  0  0
   35.4150   40.3690   27.0410 H   0  0  0  0  0  0  0  0  0  0  0  0
   35.1090   38.8650   27.9900 H   0  0  0  0  0  0  0  0  0  0  0  0
   32.2490   38.1140   31.3410 H   0  0  0  0  0  0  0  0  0  0  0  0
  1  2  2  0  0  0  0
  1 12  1  0  0  0  0
  1 19  1  0  0  0  0
  2 17  1  0  0  0  0
  2 31  1  0  0  0  0
  3 22  1  0  0  0  0
  3 32  1  0  0  0  0
  3 33  1  0  0  0  0
  3 34  1  0  0  0  0
  4 13  1  0  0  0  0
  4 17  2  0  0  0  0
  4 35  1  0  0  0  0
  5 14  2  0  0  0  0
  5 24  1  0  0  0  0
  5 36  1  0  0  0  0
  6  7  1  0  0  0  0
  6 16  1  0  0  0  0
  6 25  1  0  0  0  0
  6 37  1  6  0  0  0
  7 26  1  0  0  0  0
  7 38  1  0  0  0  0
  7 39  1  0  0  0  0
  8 16  1  0  0  0  0
  8 23  1  0  0  0  0
  8 24  2  0  0  0  0
  9 10  1  0  0  0  0
  9 21  2  0  0  0  0
  9 22  1  0  0  0  0
 10 11  2  0  0  0  0
 10 20  1  0  0  0  0
 11 14  1  0  0  0  0
 11 40  1  0  0  0  0
 12 13  2  0  0  0  0
 12 20  1  0  0  0  0
 13 41  1  0  0  0  0
 14 15  1  0  0  0  0
 15 22  1  0  0  0  0
 15 23  2  0  0  0  0
 16 42  1  0  0  0  0
 17 18  1  0  0  0  0
 25 43  1  0  0  0  0
 25 44  1  0  0  0  0
 25 45  1  0  0  0  0
 26 27  1  0  0  0  0
 26 30  1  0  0  0  0
 27 28  2  0  0  0  0
 28 29  1  0  0  0  0
 28 46  1  0  0  0  0
 29 30  2  0  0  0  0
M  END
$$$$
