p38a_3flw
 OpenBabel02232411163D
Structure written by MMmdl.
 49 51  0  0  0  0  0  0  0  0999 V2000
   36.3700   36.0610   15.7880 C   0  0  0  0  0  0  0  0  0  0  0  0
   37.6610   36.5780   15.9630 C   0  0  0  0  0  0  0  0  0  0  0  0
   31.7500   37.9570   26.0760 C   0  0  0  0  0  0  0  0  0  0  0  0
   31.0820   37.6820   27.4310 C   0  0  0  0  0  0  0  0  0  0  0  0
   34.0790   38.6730   26.8700 C   0  0  0  0  0  0  0  0  0  0  0  0
   33.6150   34.8540   23.6120 C   0  0  0  0  0  0  0  0  0  0  0  0
   34.5310   35.0320   16.8500 F   0  0  0  0  0  0  0  0  0  0  0  0
   35.7390   35.5730   16.9280 C   0  0  0  0  0  0  0  0  0  0  0  0
   38.2660   37.1140   14.9050 F   0  0  0  0  0  0  0  0  0  0  0  0
   38.3250   36.5930   17.1920 C   0  0  0  0  0  0  0  0  0  0  0  0
   37.6540   36.1320   18.3310 C   0  0  0  0  0  0  0  0  0  0  0  0
   36.3610   35.6200   18.1920 C   0  0  0  0  0  0  0  0  0  0  0  0
   35.6700   34.9900   19.2350 O   0  0  0  0  0  0  0  0  0  0  0  0
   35.1770   35.8200   20.2370 C   0  0  0  0  0  0  0  0  0  0  0  0
   35.2230   37.1700   20.3070 C   0  0  0  0  0  0  0  0  0  0  0  0
   34.6690   37.8210   21.4650 C   0  0  0  0  0  0  0  0  0  0  0  0
   34.6320   39.2330   21.6140 C   0  0  0  0  0  0  0  0  0  0  0  0
   34.1470   39.8370   22.7100 N   0  0  0  0  0  0  0  0  0  0  0  0
   34.5350   34.9540   21.2650 C   0  0  0  0  0  0  0  0  0  0  0  0
   34.3520   33.7610   21.1610 O   0  0  0  0  0  0  0  0  0  0  0  0
   34.1180   35.6470   22.4550 N   0  0  0  0  0  0  0  0  0  0  0  0
   34.1470   37.0480   22.5440 C   0  0  0  0  0  0  0  0  0  0  0  0
   33.6520   37.6360   23.6850 N   0  0  0  0  0  0  0  0  0  0  0  0
   33.6430   39.0090   23.7350 C   0  0  0  0  0  0  0  0  0  0  0  0
   33.0370   39.6760   24.7900 N   0  0  0  0  0  0  0  0  0  0  0  0
   32.7810   39.1000   26.1510 C   0  0  0  0  0  0  0  0  0  0  0  0
   35.1880   39.7320   26.9110 C   0  0  0  0  0  0  0  0  0  0  0  0
   34.7370   40.9920   27.4450 O   0  0  0  0  0  0  0  0  0  0  0  0
   30.6150   36.3150   27.4160 O   0  0  0  0  0  0  0  0  0  0  0  0
   35.8790   36.0630   14.8120 H   0  0  0  0  0  0  0  0  0  0  0  0
   32.2470   37.0130   25.7330 H   0  0  0  0  0  0  0  0  0  0  0  0
   30.9650   38.2220   25.3280 H   0  0  0  0  0  0  0  0  0  0  0  0
   31.8130   37.7120   28.2720 H   0  0  0  0  0  0  0  0  0  0  0  0
   30.2310   38.3700   27.6180 H   0  0  0  0  0  0  0  0  0  0  0  0
   33.8110   38.4020   27.9240 H   0  0  0  0  0  0  0  0  0  0  0  0
   34.4940   37.7520   26.3870 H   0  0  0  0  0  0  0  0  0  0  0  0
   34.1690   35.1510   24.5450 H   0  0  0  0  0  0  0  0  0  0  0  0
   32.5220   35.0550   23.7690 H   0  0  0  0  0  0  0  0  0  0  0  0
   33.7730   33.7600   23.4290 H   0  0  0  0  0  0  0  0  0  0  0  0
   39.3410   36.9860   17.2770 H   0  0  0  0  0  0  0  0  0  0  0  0
   38.1370   36.1970   19.3080 H   0  0  0  0  0  0  0  0  0  0  0  0
   35.6690   37.7950   19.5300 H   0  0  0  0  0  0  0  0  0  0  0  0
   35.0130   39.8840   20.8090 H   0  0  0  0  0  0  0  0  0  0  0  0
   33.1980   40.7040   24.8300 H   0  0  0  0  0  0  0  0  0  0  0  0
   32.3200   39.9600   26.7230 H   0  0  0  0  0  0  0  0  0  0  0  0
   35.9830   39.4280   27.6340 H   0  0  0  0  0  0  0  0  0  0  0  0
   35.6040   39.9150   25.8970 H   0  0  0  0  0  0  0  0  0  0  0  0
   34.1430   41.4150   26.7520 H   0  0  0  0  0  0  0  0  0  0  0  0
   29.5950   36.3230   27.5200 H   0  0  0  0  0  0  0  0  0  0  0  0
  1  2  2  0  0  0  0
  1  8  1  0  0  0  0
  1 30  1  0  0  0  0
  2  9  1  0  0  0  0
  2 10  1  0  0  0  0
  3  4  1  0  0  0  0
  3 26  1  0  0  0  0
  3 31  1  0  0  0  0
  3 32  1  0  0  0  0
  4 29  1  0  0  0  0
  4 33  1  0  0  0  0
  4 34  1  0  0  0  0
  5 26  1  0  0  0  0
  5 27  1  0  0  0  0
  5 35  1  0  0  0  0
  5 36  1  0  0  0  0
  6 21  1  0  0  0  0
  6 37  1  0  0  0  0
  6 38  1  0  0  0  0
  6 39  1  0  0  0  0
  7  8  1  0  0  0  0
  8 12  2  0  0  0  0
 10 11  2  0  0  0  0
 10 40  1  0  0  0  0
 11 12  1  0  0  0  0
 11 41  1  0  0  0  0
 12 13  1  0  0  0  0
 13 14  1  0  0  0  0
 14 15  2  0  0  0  0
 14 19  1  0  0  0  0
 15 16  1  0  0  0  0
 15 42  1  0  0  0  0
 16 17  2  0  0  0  0
 16 22  1  0  0  0  0
 17 18  1  0  0  0  0
 17 43  1  0  0  0  0
 18 24  2  0  0  0  0
 19 20  2  0  0  0  0
 19 21  1  0  0  0  0
 21 22  1  0  0  0  0
 22 23  2  0  0  0  0
 23 24  1  0  0  0  0
 24 25  1  0  0  0  0
 25 26  1  0  0  0  0
 25 44  1  0  0  0  0
 26 45  1  0  0  0  0
 27 28  1  0  0  0  0
 27 46  1  0  0  0  0
 27 47  1  0  0  0  0
 28 48  1  0  0  0  0
 29 49  1  0  0  0  0
M  END
$$$$
