23486
 OpenBabel02232411173D
Structure written by MMmdl.
 60 63  0  0  0  0  0  0  0  0999 V2000
   42.4800   17.9640   12.5730 O   0  0  0  0  0  0  0  0  0  0  0  0
   41.3370   17.6710   12.9400 C   0  0  0  0  0  0  0  0  0  0  0  0
   40.3030   18.3480   12.7510 O   0  5  0  0  0  0  0  0  0  0  0  0
   41.1100   16.3240   13.6900 C   0  0  0  0  0  0  0  0  0  0  0  0
   42.4640   15.7670   13.7040 O   0  0  0  0  0  0  0  0  0  0  0  0
   42.6850   14.8640   14.6970 C   0  0  0  0  0  0  0  0  0  0  0  0
   42.0980   13.5390   14.6710 C   0  0  0  0  0  0  0  0  0  0  0  0
   41.0100   13.1520   13.4080 Cl  0  0  0  0  0  0  0  0  0  0  0  0
   42.5040   12.7020   15.6760 C   0  0  0  0  0  0  0  0  0  0  0  0
   42.0920   11.3590   16.0210 C   0  0  0  0  0  0  0  0  0  0  0  0
   42.8570   10.5330   16.8840 C   0  0  0  0  0  0  0  0  0  0  0  0
   42.3940    9.2700   17.2310 C   0  0  0  0  0  0  0  0  0  0  0  0
   41.1830    8.7590   16.7350 C   0  0  0  0  0  0  0  0  0  0  0  0
   40.4240    9.5580   15.8730 C   0  0  0  0  0  0  0  0  0  0  0  0
   39.1210    9.2300   15.3810 N   0  0  0  0  0  0  0  0  0  0  0  0
   38.5330    7.8830   15.5480 C   0  0  0  0  0  0  0  0  0  0  0  0
   37.0030    7.9850   15.3070 C   0  0  0  0  0  0  0  0  0  0  0  0
   36.6280    8.1320   13.8220 C   0  0  0  0  0  0  0  0  0  0  0  0
   37.2320    7.0900   12.9480 N   0  0  0  0  0  0  0  0  0  0  0  0
   36.2660    5.7800   12.4630 S   0  0  0  0  0  0  0  0  0  0  0  0
   37.0920    4.8750   11.6720 O   0  0  0  0  0  0  0  0  0  0  0  0
   35.1780    6.4000   11.6830 O   0  0  0  0  0  0  0  0  0  0  0  0
   35.5490    4.9460   13.8370 C   0  0  0  0  0  0  0  0  0  0  0  0
   36.1270    3.5790   14.0150 C   0  0  0  0  0  0  0  0  0  0  0  0
   35.6540    2.4970   13.2520 C   0  0  0  0  0  0  0  0  0  0  0  0
   36.2210    1.2290   13.4090 C   0  0  0  0  0  0  0  0  0  0  0  0
   37.2520    1.0250   14.3320 C   0  0  0  0  0  0  0  0  0  0  0  0
   37.7060    2.0930   15.1100 C   0  0  0  0  0  0  0  0  0  0  0  0
   37.1440    3.3640   14.9580 C   0  0  0  0  0  0  0  0  0  0  0  0
   38.6990    6.9350   13.1540 C   0  0  0  0  0  0  0  0  0  0  0  0
   39.1190    6.7860   14.6230 C   0  0  0  0  0  0  0  0  0  0  0  0
   40.8880   10.8470   15.5230 C   0  0  0  0  0  0  0  0  0  0  0  0
   43.6720   13.5790   16.6530 S   0  0  0  0  0  0  0  0  0  0  0  0
   43.5690   15.0610   15.7230 C   0  0  0  0  0  0  0  0  0  0  0  0
   44.3640   16.3050   16.1390 C   0  0  0  0  0  0  0  0  0  0  0  0
   45.0200   16.1810   17.1980 O   0  0  0  0  0  0  0  0  0  0  0  0
   44.3320   17.3030   15.4200 O   0  5  0  0  0  0  0  0  0  0  0  0
   40.4500   15.6450   13.1120 H   0  0  0  0  0  0  0  0  0  0  0  0
   40.7180   16.4650   14.7180 H   0  0  0  0  0  0  0  0  0  0  0  0
   43.8140   10.8670   17.2880 H   0  0  0  0  0  0  0  0  0  0  0  0
   42.9740    8.6400   17.9110 H   0  0  0  0  0  0  0  0  0  0  0  0
   40.8600    7.7630   17.0250 H   0  0  0  0  0  0  0  0  0  0  0  0
   38.9210    9.6170   14.4440 H   0  0  0  0  0  0  0  0  0  0  0  0
   38.6910    7.5520   16.6110 H   0  0  0  0  0  0  0  0  0  0  0  0
   36.5390    7.0720   15.7490 H   0  0  0  0  0  0  0  0  0  0  0  0
   36.6000    8.8610   15.8720 H   0  0  0  0  0  0  0  0  0  0  0  0
   35.5150    8.1070   13.7180 H   0  0  0  0  0  0  0  0  0  0  0  0
   37.0000    9.1250   13.4430 H   0  0  0  0  0  0  0  0  0  0  0  0
   35.6720    5.5270   14.7960 H   0  0  0  0  0  0  0  0  0  0  0  0
   34.4320    4.8660   13.7050 H   0  0  0  0  0  0  0  0  0  0  0  0
   34.8310    2.6310   12.5430 H   0  0  0  0  0  0  0  0  0  0  0  0
   35.8520    0.3870   12.8150 H   0  0  0  0  0  0  0  0  0  0  0  0
   37.6950    0.0320   14.4530 H   0  0  0  0  0  0  0  0  0  0  0  0
   38.5000    1.9390   15.8480 H   0  0  0  0  0  0  0  0  0  0  0  0
   37.4940    4.1810   15.5980 H   0  0  0  0  0  0  0  0  0  0  0  0
   39.0720    6.0490   12.5800 H   0  0  0  0  0  0  0  0  0  0  0  0
   39.1720    7.8700   12.7480 H   0  0  0  0  0  0  0  0  0  0  0  0
   40.2350    6.8080   14.6830 H   0  0  0  0  0  0  0  0  0  0  0  0
   38.7880    5.7990   15.0200 H   0  0  0  0  0  0  0  0  0  0  0  0
   40.2490   11.4370   14.8720 H   0  0  0  0  0  0  0  0  0  0  0  0
  1  2  2  0  0  0  0
  2  3  1  0  0  0  0
  2  4  1  0  0  0  0
  4  5  1  0  0  0  0
  4 38  1  0  0  0  0
  4 39  1  0  0  0  0
  5  6  1  0  0  0  0
  6 34  2  0  0  0  0
  6  7  1  0  0  0  0
  7  8  1  0  0  0  0
  7  9  2  0  0  0  0
  9 10  1  0  0  0  0
  9 33  1  0  0  0  0
 10 32  2  0  0  0  0
 10 11  1  0  0  0  0
 11 12  2  0  0  0  0
 11 40  1  0  0  0  0
 12 13  1  0  0  0  0
 12 41  1  0  0  0  0
 13 14  2  0  0  0  0
 13 42  1  0  0  0  0
 14 15  1  0  0  0  0
 14 32  1  0  0  0  0
 15 16  1  0  0  0  0
 15 43  1  0  0  0  0
 16 31  1  0  0  0  0
 16 17  1  0  0  0  0
 16 44  1  0  0  0  0
 17 18  1  0  0  0  0
 17 45  1  0  0  0  0
 17 46  1  0  0  0  0
 18 19  1  0  0  0  0
 18 47  1  0  0  0  0
 18 48  1  0  0  0  0
 19 20  1  0  0  0  0
 19 30  1  0  0  0  0
 20 21  2  0  0  0  0
 20 22  2  0  0  0  0
 20 23  1  0  0  0  0
 23 24  1  0  0  0  0
 23 49  1  0  0  0  0
 23 50  1  0  0  0  0
 24 29  2  0  0  0  0
 24 25  1  0  0  0  0
 25 26  2  0  0  0  0
 25 51  1  0  0  0  0
 26 27  1  0  0  0  0
 26 52  1  0  0  0  0
 27 28  2  0  0  0  0
 27 53  1  0  0  0  0
 28 29  1  0  0  0  0
 28 54  1  0  0  0  0
 29 55  1  0  0  0  0
 30 31  1  0  0  0  0
 30 56  1  0  0  0  0
 30 57  1  0  0  0  0
 31 58  1  0  0  0  0
 31 59  1  0  0  0  0
 32 60  1  0  0  0  0
 33 34  1  0  0  0  0
 34 35  1  0  0  0  0
 35 36  2  0  0  0  0
 35 37  1  0  0  0  0
M  CHG  2   3  -1  37  -1
M  END
$$$$
