p38a_2y
 OpenBabel02232411163D
Structure written by MMmdl.
 45 47  0  0  0  0  0  0  0  0999 V2000
   38.3030   36.5440   17.1790 C   0  0  0  0  0  0  0  0  0  0  0  0
   34.3090   35.0830   21.1230 C   0  0  0  0  0  0  0  0  0  0  0  0
   37.5300   36.0780   18.2390 C   0  0  0  0  0  0  0  0  0  0  0  0
   33.3950   39.2050   23.4910 C   0  0  0  0  0  0  0  0  0  0  0  0
   32.1570   39.2070   25.6820 C   0  0  0  0  0  0  0  0  0  0  0  0
   34.4520   37.9580   21.2710 C   0  0  0  0  0  0  0  0  0  0  0  0
   35.0200   37.2810   20.1380 C   0  0  0  0  0  0  0  0  0  0  0  0
   37.6480   36.6950   15.9490 C   0  0  0  0  0  0  0  0  0  0  0  0
   36.3030   36.3780   15.7480 C   0  0  0  0  0  0  0  0  0  0  0  0
   35.5520   35.8940   16.8250 C   0  0  0  0  0  0  0  0  0  0  0  0
   33.7990   37.2140   22.2980 C   0  0  0  0  0  0  0  0  0  0  0  0
   34.5280   39.3660   21.4440 C   0  0  0  0  0  0  0  0  0  0  0  0
   34.9640   35.9310   20.0910 C   0  0  0  0  0  0  0  0  0  0  0  0
   36.1730   35.7330   18.0660 C   0  0  0  0  0  0  0  0  0  0  0  0
   32.9680   35.0620   23.2580 C   0  0  0  0  0  0  0  0  0  0  0  0
   38.0640   35.9530   19.4460 F   0  0  0  0  0  0  0  0  0  0  0  0
   35.4790   35.0930   19.1030 O   0  0  0  0  0  0  0  0  0  0  0  0
   34.0450   39.9960   22.5250 N   0  0  0  0  0  0  0  0  0  0  0  0
   34.2540   33.8730   21.1100 O   0  0  0  0  0  0  0  0  0  0  0  0
   33.7130   35.8160   22.2110 N   0  0  0  0  0  0  0  0  0  0  0  0
   33.2700   37.8320   23.4060 N   0  0  0  0  0  0  0  0  0  0  0  0
   32.8000   39.8820   24.5360 N   0  0  0  0  0  0  0  0  0  0  0  0
   39.3540   36.8190   17.3090 H   0  0  0  0  0  0  0  0  0  0  0  0
   31.5220   38.3550   25.3160 H   0  0  0  0  0  0  0  0  0  0  0  0
   35.4840   37.8860   19.3560 H   0  0  0  0  0  0  0  0  0  0  0  0
   35.8270   36.5180   14.7750 H   0  0  0  0  0  0  0  0  0  0  0  0
   34.4900   35.6640   16.6880 H   0  0  0  0  0  0  0  0  0  0  0  0
   35.0050   39.9890   20.6700 H   0  0  0  0  0  0  0  0  0  0  0  0
   33.5580   35.0410   24.2120 H   0  0  0  0  0  0  0  0  0  0  0  0
   31.9760   35.5530   23.4550 H   0  0  0  0  0  0  0  0  0  0  0  0
   32.7830   34.0090   22.9170 H   0  0  0  0  0  0  0  0  0  0  0  0
   33.1160   40.8510   24.7480 H   0  0  0  0  0  0  0  0  0  0  0  0
   38.3360   37.2040   14.9300 F   0  0  0  0  0  0  0  0  0  0  0  0
   33.1370   38.6970   26.7920 C   0  0  0  0  0  0  0  0  0  0  0  0
   31.4710   39.9760   26.1390 H   0  0  0  0  0  0  0  0  0  0  0  0
   32.3080   38.2320   27.9970 C   0  0  0  0  0  0  0  0  0  0  0  0
   33.8860   37.5520   26.3300 O   0  0  0  0  0  0  0  0  0  0  0  0
   34.1790   39.7490   27.1830 C   0  0  0  0  0  0  0  0  0  0  0  0
   33.5610   37.2580   25.4480 H   0  0  0  0  0  0  0  0  0  0  0  0
   32.9560   37.6860   28.7220 H   0  0  0  0  0  0  0  0  0  0  0  0
   31.8570   39.1050   28.5220 H   0  0  0  0  0  0  0  0  0  0  0  0
   31.4880   37.5460   27.6840 H   0  0  0  0  0  0  0  0  0  0  0  0
   34.7500   39.4190   28.0800 H   0  0  0  0  0  0  0  0  0  0  0  0
   34.9000   39.9220   26.3550 H   0  0  0  0  0  0  0  0  0  0  0  0
   33.6770   40.7160   27.4230 H   0  0  0  0  0  0  0  0  0  0  0  0
  1  3  2  0  0  0  0
  1  8  1  0  0  0  0
  1 23  1  0  0  0  0
  2 13  1  0  0  0  0
  2 19  2  0  0  0  0
  2 20  1  0  0  0  0
  3 14  1  0  0  0  0
  3 16  1  0  0  0  0
  4 18  2  0  0  0  0
  4 21  1  0  0  0  0
  4 22  1  0  0  0  0
  5 22  1  0  0  0  0
  5 24  1  0  0  0  0
  5 34  1  0  0  0  0
  5 35  1  0  0  0  0
  6  7  1  0  0  0  0
  6 11  1  0  0  0  0
  6 12  2  0  0  0  0
  7 13  2  0  0  0  0
  7 25  1  0  0  0  0
  8  9  2  0  0  0  0
  8 33  1  0  0  0  0
  9 10  1  0  0  0  0
  9 26  1  0  0  0  0
 10 14  2  0  0  0  0
 10 27  1  0  0  0  0
 11 20  1  0  0  0  0
 11 21  2  0  0  0  0
 12 18  1  0  0  0  0
 12 28  1  0  0  0  0
 13 17  1  0  0  0  0
 14 17  1  0  0  0  0
 15 20  1  0  0  0  0
 15 29  1  0  0  0  0
 15 30  1  0  0  0  0
 15 31  1  0  0  0  0
 22 32  1  0  0  0  0
 34 36  1  0  0  0  0
 34 37  1  0  0  0  0
 34 38  1  0  0  0  0
 36 40  1  0  0  0  0
 36 41  1  0  0  0  0
 36 42  1  0  0  0  0
 37 39  1  0  0  0  0
 38 43  1  0  0  0  0
 38 44  1  0  0  0  0
 38 45  1  0  0  0  0
M  END
$$$$
