p38a_2m
 OpenBabel02232411163D
Structure written by MMmdl.
 50 54  0  0  0  0  0  0  0  0999 V2000
   36.4050   36.1240   15.7020 C   0  0  0  0  0  0  0  0  0  0  0  0
   34.5280   34.9060   21.1340 C   0  0  0  0  0  0  0  0  0  0  0  0
   35.7670   35.6110   16.8270 C   0  0  0  0  0  0  0  0  0  0  0  0
   33.9360   38.8750   23.8490 C   0  0  0  0  0  0  0  0  0  0  0  0
   34.7860   37.7590   21.4710 C   0  0  0  0  0  0  0  0  0  0  0  0
   35.3010   37.1410   20.2790 C   0  0  0  0  0  0  0  0  0  0  0  0
   37.6930   36.6380   15.8950 C   0  0  0  0  0  0  0  0  0  0  0  0
   38.3490   36.6310   17.1290 C   0  0  0  0  0  0  0  0  0  0  0  0
   37.6710   36.1470   18.2540 C   0  0  0  0  0  0  0  0  0  0  0  0
   34.2130   36.9600   22.5040 C   0  0  0  0  0  0  0  0  0  0  0  0
   34.8430   39.1600   21.7040 C   0  0  0  0  0  0  0  0  0  0  0  0
   35.2040   35.7990   20.1510 C   0  0  0  0  0  0  0  0  0  0  0  0
   36.3790   35.6380   18.0970 C   0  0  0  0  0  0  0  0  0  0  0  0
   34.5610   35.0690   16.7300 F   0  0  0  0  0  0  0  0  0  0  0  0
   35.6730   34.9910   19.1170 O   0  0  0  0  0  0  0  0  0  0  0  0
   34.4390   39.7320   22.8480 N   0  0  0  0  0  0  0  0  0  0  0  0
   34.3600   33.7170   20.9840 O   0  0  0  0  0  0  0  0  0  0  0  0
   34.0650   35.5700   22.3260 N   0  0  0  0  0  0  0  0  0  0  0  0
   33.7990   37.5070   23.6890 N   0  0  0  0  0  0  0  0  0  0  0  0
   33.5620   39.4370   25.0440 N   0  0  0  0  0  0  0  0  0  0  0  0
   35.9190   36.1450   14.7240 H   0  0  0  0  0  0  0  0  0  0  0  0
   35.7680   37.7820   19.5280 H   0  0  0  0  0  0  0  0  0  0  0  0
   39.3640   37.0230   17.2300 H   0  0  0  0  0  0  0  0  0  0  0  0
   38.1480   36.1950   19.2360 H   0  0  0  0  0  0  0  0  0  0  0  0
   35.2290   39.8300   20.9180 H   0  0  0  0  0  0  0  0  0  0  0  0
   33.6570   40.4600   25.1830 H   0  0  0  0  0  0  0  0  0  0  0  0
   38.3050   37.1930   14.8510 F   0  0  0  0  0  0  0  0  0  0  0  0
   33.1350   40.2960   28.0810 C   0  0  0  0  0  0  0  0  0  0  0  0
   32.1780   39.6200   27.0910 C   0  0  0  0  0  0  0  0  0  0  0  0
   32.8940   38.6480   26.1310 C   0  0  0  0  0  0  0  0  0  0  0  0
   33.8890   37.7530   26.8980 C   0  0  0  0  0  0  0  0  0  0  0  0
   34.7760   38.5480   27.8560 C   0  0  0  0  0  0  0  0  0  0  0  0
   33.9820   39.3490   28.7640 O   0  0  0  0  0  0  0  0  0  0  0  0
   32.5750   40.7670   28.9210 H   0  0  0  0  0  0  0  0  0  0  0  0
   33.7820   41.0380   27.5600 H   0  0  0  0  0  0  0  0  0  0  0  0
   31.6520   40.4110   26.5020 H   0  0  0  0  0  0  0  0  0  0  0  0
   31.4060   39.0360   27.6510 H   0  0  0  0  0  0  0  0  0  0  0  0
   32.1190   37.9840   25.6460 H   0  0  0  0  0  0  0  0  0  0  0  0
   33.2890   36.9990   27.4710 H   0  0  0  0  0  0  0  0  0  0  0  0
   34.5320   37.1830   26.1820 H   0  0  0  0  0  0  0  0  0  0  0  0
   35.3200   37.8750   28.5580 H   0  0  0  0  0  0  0  0  0  0  0  0
   35.4700   39.2180   27.3000 H   0  0  0  0  0  0  0  0  0  0  0  0
   33.4860   34.7650   23.4240 C   0  0  0  0  0  0  0  0  0  0  0  0
   32.3370   33.8030   23.1480 C   0  0  0  0  0  0  0  0  0  0  0  0
   32.0830   35.0670   23.9420 C   0  0  0  0  0  0  0  0  0  0  0  0
   34.2620   34.4820   24.1610 H   0  0  0  0  0  0  0  0  0  0  0  0
   31.9030   33.7190   22.1440 H   0  0  0  0  0  0  0  0  0  0  0  0
   32.3480   32.8390   23.6800 H   0  0  0  0  0  0  0  0  0  0  0  0
   31.4850   35.8730   23.4980 H   0  0  0  0  0  0  0  0  0  0  0  0
   31.9230   35.0030   25.0300 H   0  0  0  0  0  0  0  0  0  0  0  0
  1  3  2  0  0  0  0
  1  7  1  0  0  0  0
  1 21  1  0  0  0  0
  2 12  1  0  0  0  0
  2 17  2  0  0  0  0
  2 18  1  0  0  0  0
  3 13  1  0  0  0  0
  3 14  1  0  0  0  0
  4 16  2  0  0  0  0
  4 19  1  0  0  0  0
  4 20  1  0  0  0  0
  5  6  1  0  0  0  0
  5 10  1  0  0  0  0
  5 11  2  0  0  0  0
  6 12  2  0  0  0  0
  6 22  1  0  0  0  0
  7  8  2  0  0  0  0
  7 27  1  0  0  0  0
  8  9  1  0  0  0  0
  8 23  1  0  0  0  0
  9 13  2  0  0  0  0
  9 24  1  0  0  0  0
 10 18  1  0  0  0  0
 10 19  2  0  0  0  0
 11 16  1  0  0  0  0
 11 25  1  0  0  0  0
 12 15  1  0  0  0  0
 13 15  1  0  0  0  0
 18 43  1  0  0  0  0
 20 26  1  0  0  0  0
 20 30  1  0  0  0  0
 28 29  1  0  0  0  0
 28 33  1  0  0  0  0
 28 34  1  0  0  0  0
 28 35  1  0  0  0  0
 29 30  1  0  0  0  0
 29 36  1  0  0  0  0
 29 37  1  0  0  0  0
 30 31  1  0  0  0  0
 30 38  1  0  0  0  0
 31 32  1  0  0  0  0
 31 39  1  0  0  0  0
 31 40  1  0  0  0  0
 32 33  1  0  0  0  0
 32 41  1  0  0  0  0
 32 42  1  0  0  0  0
 43 44  1  0  0  0  0
 43 45  1  0  0  0  0
 43 46  1  0  0  0  0
 44 45  1  0  0  0  0
 44 47  1  0  0  0  0
 44 48  1  0  0  0  0
 45 49  1  0  0  0  0
 45 50  1  0  0  0  0
M  END
$$$$
