38 flip
                    3D
 Schrodinger Suite 2022-3.
 48 51  0  0  1  0  0  0  0  0999 V2000
    3.7110  -48.7310    7.2410 O   0  0  0  0  0  0  0  0  0  0  0  0
    3.3490  -49.6700    6.5170 C   0  0  0  0  0  0  0  0  0  0  0  0
    4.0820  -50.4600    5.8940 O   0  5  0  0  0  0  0  0  0  0  0  0
    1.8360  -49.9220    6.3740 C   0  0  0  0  0  0  0  0  0  0  0  0
   -0.0910  -51.1500    6.5090 C   0  0  0  0  0  0  0  0  0  0  0  0
   -1.0740  -52.1260    6.7460 C   0  0  0  0  0  0  0  0  0  0  0  0
   -2.3840  -51.8060    6.4240 C   0  0  0  0  0  0  0  0  0  0  0  0
   -2.7180  -50.5470    5.8700 C   0  0  0  0  0  0  0  0  0  0  0  0
   -1.7520  -49.5800    5.6300 C   0  0  0  0  0  0  0  0  0  0  0  0
   -0.4140  -49.8590    5.9520 C   0  0  0  0  0  0  0  0  0  0  0  0
    0.8210  -49.1060    5.8900 C   0  0  0  0  0  0  0  0  0  0  0  0
    0.9030  -47.6820    5.4650 C   0  0  0  0  0  0  0  0  0  0  0  0
    0.9990  -46.7320    6.6740 C   0  0  0  0  0  0  0  0  0  0  0  0
   -0.0690  -46.9890    7.7310 C   0  0  0  0  0  0  0  0  0  0  0  0
   -1.3150  -46.4870    7.1220 O   0  0  0  0  0  0  0  0  0  0  0  0
   -2.4490  -46.5450    7.8780 C   0  0  0  0  0  0  0  0  0  0  0  0
   -3.4820  -45.7210    7.3920 C   0  0  0  0  0  0  0  0  0  0  0  0
   -4.6840  -45.6260    8.1010 C   0  0  0  0  0  0  0  0  0  0  0  0
   -4.8140  -46.3020    9.3300 C   0  0  0  0  0  0  0  0  0  0  0  0
   -3.8160  -47.1840    9.7480 C   0  0  0  0  0  0  0  0  0  0  0  0
   -2.6430  -47.3490    9.0110 C   0  0  0  0  0  0  0  0  0  0  0  0
   -0.8230  -53.0970    7.1740 H   0  0  0  0  0  0  0  0  0  0  0  0
   -3.1810  -52.5300    6.6010 H   0  0  0  0  0  0  0  0  0  0  0  0
   -3.7640  -50.3430    5.6330 H   0  0  0  0  0  0  0  0  0  0  0  0
   -2.0380  -48.6170    5.2050 H   0  0  0  0  0  0  0  0  0  0  0  0
   -0.0180  -47.4160    4.8840 H   0  0  0  0  0  0  0  0  0  0  0  0
    1.7900  -47.5090    4.8110 H   0  0  0  0  0  0  0  0  0  0  0  0
    0.8980  -45.6810    6.3150 H   0  0  0  0  0  0  0  0  0  0  0  0
    1.9960  -46.8780    7.1640 H   0  0  0  0  0  0  0  0  0  0  0  0
    0.0880  -46.3820    8.6450 H   0  0  0  0  0  0  0  0  0  0  0  0
   -0.2140  -48.0690    7.9420 H   0  0  0  0  0  0  0  0  0  0  0  0
   -3.3290  -45.2060    6.4470 H   0  0  0  0  0  0  0  0  0  0  0  0
   -1.9440  -48.1240    9.2950 H   0  0  0  0  0  0  0  0  0  0  0  0
    1.2910  -51.1630    6.7580 N   0  0  0  0  0  0  0  0  0  0  0  0
    1.7850  -51.9680    7.1260 H   0  0  0  0  0  0  0  0  0  0  0  0
   -3.9640  -47.7730   10.6560 H   0  0  0  0  0  0  0  0  0  0  0  0
   -5.6980  -46.1740    9.9510 H   0  0  0  0  0  0  0  0  0  0  0  0
   -8.0360  -44.1510    5.9010 C   0  0  0  0  0  0  0  0  0  0  0  0
   -6.7520  -43.7040    5.5830 C   0  0  0  0  0  0  0  0  0  0  0  0
   -5.6610  -44.0840    6.3660 C   0  0  0  0  0  0  0  0  0  0  0  0
   -5.8370  -44.9450    7.4660 C   0  0  0  0  0  0  0  0  0  0  0  0
   -7.1470  -45.2890    7.8430 C   0  0  0  0  0  0  0  0  0  0  0  0
   -8.2350  -44.9130    7.0550 C   0  0  0  0  0  0  0  0  0  0  0  0
   -8.8830  -43.9180    5.2620 H   0  0  0  0  0  0  0  0  0  0  0  0
   -6.5910  -43.0710    4.7150 H   0  0  0  0  0  0  0  0  0  0  0  0
   -4.6740  -43.7040    6.0980 H   0  0  0  0  0  0  0  0  0  0  0  0
   -7.3330  -45.8850    8.7360 H   0  0  0  0  0  0  0  0  0  0  0  0
   -9.2410  -45.2260    7.3300 H   0  0  0  0  0  0  0  0  0  0  0  0
  1  2  2  0  0  0  0
  2  3  1  0  0  0  0
  2  4  1  0  0  0  0
  4 11  2  0  0  0  0
  4 34  1  0  0  0  0
  5  6  1  0  0  0  0
  5 10  2  0  0  0  0
  5 34  1  0  0  0  0
  6  7  2  0  0  0  0
  6 22  1  0  0  0  0
  7  8  1  0  0  0  0
  7 23  1  0  0  0  0
  8  9  2  0  0  0  0
  8 24  1  0  0  0  0
  9 10  1  0  0  0  0
  9 25  1  0  0  0  0
 10 11  1  0  0  0  0
 11 12  1  0  0  0  0
 12 26  1  0  0  0  0
 12 27  1  0  0  0  0
 12 13  1  0  0  0  0
 13 14  1  0  0  0  0
 13 28  1  0  0  0  0
 13 29  1  0  0  0  0
 14 15  1  0  0  0  0
 14 30  1  0  0  0  0
 14 31  1  0  0  0  0
 15 16  1  0  0  0  0
 16 17  1  0  0  0  0
 16 21  2  0  0  0  0
 17 18  2  0  0  0  0
 17 32  1  0  0  0  0
 18 19  1  0  0  0  0
 18 41  1  0  0  0  0
 19 20  2  0  0  0  0
 19 37  1  0  0  0  0
 20 21  1  0  0  0  0
 20 36  1  0  0  0  0
 21 33  1  0  0  0  0
 34 35  1  0  0  0  0
 38 39  2  0  0  0  0
 38 43  1  0  0  0  0
 38 44  1  0  0  0  0
 39 40  1  0  0  0  0
 39 45  1  0  0  0  0
 40 41  2  0  0  0  0
 40 46  1  0  0  0  0
 41 42  1  0  0  0  0
 42 43  2  0  0  0  0
 42 47  1  0  0  0  0
 43 48  1  0  0  0  0
M  CHG  1   3  -1
M  END
$$$$
