p38a_2l
 OpenBabel02232411163D
Structure written by MMmdl.
 49 52  0  0  0  0  0  0  0  0999 V2000
   38.2820   36.5470   17.1550 C   0  0  0  0  0  0  0  0  0  0  0  0
   34.5590   35.0890   21.2100 C   0  0  0  0  0  0  0  0  0  0  0  0
   37.4880   36.0880   18.2020 C   0  0  0  0  0  0  0  0  0  0  0  0
   34.0160   39.1710   23.7510 C   0  0  0  0  0  0  0  0  0  0  0  0
   34.6370   37.9660   21.3500 C   0  0  0  0  0  0  0  0  0  0  0  0
   35.0210   37.3100   20.1310 C   0  0  0  0  0  0  0  0  0  0  0  0
   37.6480   36.7100   15.9160 C   0  0  0  0  0  0  0  0  0  0  0  0
   36.3010   36.4120   15.6950 C   0  0  0  0  0  0  0  0  0  0  0  0
   35.5270   35.9380   16.7600 C   0  0  0  0  0  0  0  0  0  0  0  0
   34.3050   37.1930   22.5030 C   0  0  0  0  0  0  0  0  0  0  0  0
   34.5960   39.3800   21.4880 C   0  0  0  0  0  0  0  0  0  0  0  0
   35.0140   35.9580   20.0910 C   0  0  0  0  0  0  0  0  0  0  0  0
   36.1260   35.7680   18.0110 C   0  0  0  0  0  0  0  0  0  0  0  0
   38.0080   35.9480   19.4140 F   0  0  0  0  0  0  0  0  0  0  0  0
   35.3930   35.1410   19.0270 O   0  0  0  0  0  0  0  0  0  0  0  0
   34.3000   39.9940   22.6430 N   0  0  0  0  0  0  0  0  0  0  0  0
   34.4280   33.8860   21.1520 O   0  0  0  0  0  0  0  0  0  0  0  0
   34.2380   35.7910   22.4240 N   0  0  0  0  0  0  0  0  0  0  0  0
   34.0210   37.7910   23.7050 N   0  0  0  0  0  0  0  0  0  0  0  0
   33.6470   39.7910   24.9240 N   0  0  0  0  0  0  0  0  0  0  0  0
   39.3350   36.8050   17.3010 H   0  0  0  0  0  0  0  0  0  0  0  0
   35.3160   37.9290   19.2810 H   0  0  0  0  0  0  0  0  0  0  0  0
   35.8410   36.5600   14.7160 H   0  0  0  0  0  0  0  0  0  0  0  0
   34.4650   35.7210   16.6070 H   0  0  0  0  0  0  0  0  0  0  0  0
   34.8100   40.0230   20.6180 H   0  0  0  0  0  0  0  0  0  0  0  0
   33.7530   40.8210   25.0120 H   0  0  0  0  0  0  0  0  0  0  0  0
   38.3550   37.2140   14.9080 F   0  0  0  0  0  0  0  0  0  0  0  0
   32.3990   39.0620   28.4580 C   0  0  0  0  0  0  0  0  0  0  0  0
   32.4360   39.7060   27.0670 C   0  0  0  0  0  0  0  0  0  0  0  0
   33.5510   39.0540   26.2210 C   0  0  0  0  0  0  0  0  0  0  0  0
   34.9010   39.1140   26.9710 C   0  0  0  0  0  0  0  0  0  0  0  0
   34.7470   38.5070   28.3710 C   0  0  0  0  0  0  0  0  0  0  0  0
   33.6840   39.1440   29.1160 O   0  0  0  0  0  0  0  0  0  0  0  0
   32.0900   37.9930   28.3950 H   0  0  0  0  0  0  0  0  0  0  0  0
   31.7410   39.6360   29.1510 H   0  0  0  0  0  0  0  0  0  0  0  0
   32.6270   40.8010   27.1670 H   0  0  0  0  0  0  0  0  0  0  0  0
   31.4510   39.5660   26.5610 H   0  0  0  0  0  0  0  0  0  0  0  0
   33.2790   37.9800   26.0180 H   0  0  0  0  0  0  0  0  0  0  0  0
   35.6720   38.5380   26.4070 H   0  0  0  0  0  0  0  0  0  0  0  0
   35.2400   40.1740   27.0520 H   0  0  0  0  0  0  0  0  0  0  0  0
   34.5400   37.4130   28.3110 H   0  0  0  0  0  0  0  0  0  0  0  0
   35.6390   38.7200   29.0040 H   0  0  0  0  0  0  0  0  0  0  0  0
   33.9430   34.9830   23.6590 C   0  0  0  0  0  0  0  0  0  0  0  0
   33.2970   35.5930   24.3520 H   0  0  0  0  0  0  0  0  0  0  0  0
   33.3640   34.0710   23.3460 H   0  0  0  0  0  0  0  0  0  0  0  0
   35.2270   34.5750   24.3790 C   0  0  0  0  0  0  0  0  0  0  0  0
   35.7910   33.8100   23.8060 H   0  0  0  0  0  0  0  0  0  0  0  0
   35.8770   35.4590   24.5640 H   0  0  0  0  0  0  0  0  0  0  0  0
   34.9570   34.1390   25.3740 H   0  0  0  0  0  0  0  0  0  0  0  0
  1  3  2  0  0  0  0
  1  7  1  0  0  0  0
  1 21  1  0  0  0  0
  2 12  1  0  0  0  0
  2 17  2  0  0  0  0
  2 18  1  0  0  0  0
  3 13  1  0  0  0  0
  3 14  1  0  0  0  0
  4 16  2  0  0  0  0
  4 19  1  0  0  0  0
  4 20  1  0  0  0  0
  5  6  1  0  0  0  0
  5 10  1  0  0  0  0
  5 11  2  0  0  0  0
  6 12  2  0  0  0  0
  6 22  1  0  0  0  0
  7  8  2  0  0  0  0
  7 27  1  0  0  0  0
  8  9  1  0  0  0  0
  8 23  1  0  0  0  0
  9 13  2  0  0  0  0
  9 24  1  0  0  0  0
 10 18  1  0  0  0  0
 10 19  2  0  0  0  0
 11 16  1  0  0  0  0
 11 25  1  0  0  0  0
 12 15  1  0  0  0  0
 13 15  1  0  0  0  0
 18 43  1  0  0  0  0
 20 26  1  0  0  0  0
 20 30  1  0  0  0  0
 28 29  1  0  0  0  0
 28 33  1  0  0  0  0
 28 34  1  0  0  0  0
 28 35  1  0  0  0  0
 29 30  1  0  0  0  0
 29 36  1  0  0  0  0
 29 37  1  0  0  0  0
 30 31  1  0  0  0  0
 30 38  1  0  0  0  0
 31 32  1  0  0  0  0
 31 39  1  0  0  0  0
 31 40  1  0  0  0  0
 32 33  1  0  0  0  0
 32 41  1  0  0  0  0
 32 42  1  0  0  0  0
 43 44  1  0  0  0  0
 43 45  1  0  0  0  0
 43 46  1  0  0  0  0
 46 47  1  0  0  0  0
 46 48  1  0  0  0  0
 46 49  1  0  0  0  0
M  END
$$$$
