18659-1
 OpenBabel02232411163D
Structure written by MMmdl.
 50 51  0  0  0  0  0  0  0  0999 V2000
   22.6590   13.9040   28.8480 C   0  0  0  0  0  0  0  0  0  0  0  0
   23.0200   13.6920   30.2310 O   0  0  0  0  0  0  0  0  0  0  0  0
   23.9250   12.5990   30.4430 C   0  0  0  0  0  0  0  0  0  0  0  0
   23.2670   11.2150   30.3400 C   0  0  0  0  0  0  0  0  0  0  0  0
   22.1230   11.2830   31.2650 O   0  0  0  0  0  0  0  0  0  0  0  0
   21.5010   10.1290   31.6020 C   0  0  0  0  0  0  0  0  0  0  0  0
   21.9620    8.9510   31.1220 N   0  0  0  0  0  0  0  0  0  0  0  0
   21.2470    7.8060   31.4480 C   0  0  0  0  0  0  0  0  0  0  0  0
   20.1130    7.8330   32.2540 C   0  0  0  0  0  0  0  0  0  0  0  0
   19.6400    9.0750   32.7540 C   0  0  0  0  0  0  0  0  0  0  0  0
   18.5030    9.1060   33.5200 N   0  0  0  0  0  0  0  0  0  0  0  0
   20.3470   10.2760   32.4270 C   0  0  0  0  0  0  0  0  0  0  0  0
   19.9470   11.5700   32.8240 C   0  0  0  0  0  0  0  0  0  0  0  0
   19.6670   12.6600   33.1060 N   0  0  0  0  0  0  0  0  0  0  0  0
   21.8000    6.6510   30.8530 N   0  0  0  0  0  0  0  0  0  0  0  0
   21.2080    5.3680   30.7850 C   0  0  0  0  0  0  0  0  0  0  0  0
   20.1460    5.1060   31.3070 O   0  0  0  0  0  0  0  0  0  0  0  0
   22.0010    4.3860   29.9340 C   0  0  0  0  0  0  0  0  0  0  0  0
   23.3320    4.0410   30.5340 C   0  0  0  0  0  0  0  0  0  0  0  0
   24.4600    4.8660   30.3080 C   0  0  0  0  0  0  0  0  0  0  0  0
   24.1900    5.9450   29.4710 O   0  0  0  0  0  0  0  0  0  0  0  0
   25.2070    6.9740   29.3500 C   0  0  0  0  0  0  0  0  0  0  0  0
   25.7090    4.5770   30.8690 C   0  0  0  0  0  0  0  0  0  0  0  0
   25.8560    3.4450   31.6660 C   0  0  0  0  0  0  0  0  0  0  0  0
   24.7440    2.6080   31.8790 C   0  0  0  0  0  0  0  0  0  0  0  0
   23.4910    2.8920   31.3160 C   0  0  0  0  0  0  0  0  0  0  0  0
   25.0300    1.5330   32.6960 O   0  0  0  0  0  0  0  0  0  0  0  0
   24.0370    0.4810   32.8030 C   0  0  0  0  0  0  0  0  0  0  0  0
   23.5730   14.0610   28.2320 H   0  0  0  0  0  0  0  0  0  0  0  0
   22.0710   13.0400   28.4740 H   0  0  0  0  0  0  0  0  0  0  0  0
   22.0480   14.8320   28.9100 H   0  0  0  0  0  0  0  0  0  0  0  0
   24.2730   12.7990   31.4840 H   0  0  0  0  0  0  0  0  0  0  0  0
   24.7760   12.6360   29.7160 H   0  0  0  0  0  0  0  0  0  0  0  0
   22.8610   10.9970   29.3280 H   0  0  0  0  0  0  0  0  0  0  0  0
   23.9790   10.4190   30.6690 H   0  0  0  0  0  0  0  0  0  0  0  0
   19.5670    6.9170   32.4910 H   0  0  0  0  0  0  0  0  0  0  0  0
   18.0070    8.2320   33.7800 H   0  0  0  0  0  0  0  0  0  0  0  0
   18.1050    9.9870   33.8470 H   0  0  0  0  0  0  0  0  0  0  0  0
   22.7140    6.7980   30.3540 H   0  0  0  0  0  0  0  0  0  0  0  0
   21.3920    3.4550   29.7990 H   0  0  0  0  0  0  0  0  0  0  0  0
   22.1670    4.8510   28.9230 H   0  0  0  0  0  0  0  0  0  0  0  0
   26.0840    6.5670   28.8040 H   0  0  0  0  0  0  0  0  0  0  0  0
   25.4840    7.3700   30.3510 H   0  0  0  0  0  0  0  0  0  0  0  0
   24.6750    7.7450   28.7470 H   0  0  0  0  0  0  0  0  0  0  0  0
   26.5770    5.2160   30.6870 H   0  0  0  0  0  0  0  0  0  0  0  0
   26.8260    3.2090   32.1130 H   0  0  0  0  0  0  0  0  0  0  0  0
   22.6430    2.2280   31.4820 H   0  0  0  0  0  0  0  0  0  0  0  0
   24.5710   -0.2670   33.4360 H   0  0  0  0  0  0  0  0  0  0  0  0
   23.1280    0.8610   33.3150 H   0  0  0  0  0  0  0  0  0  0  0  0
   23.8140    0.0650   31.7960 H   0  0  0  0  0  0  0  0  0  0  0  0
  1  2  1  0  0  0  0
  1 29  1  0  0  0  0
  1 30  1  0  0  0  0
  1 31  1  0  0  0  0
  2  3  1  0  0  0  0
  3  4  1  0  0  0  0
  3 32  1  0  0  0  0
  3 33  1  0  0  0  0
  4  5  1  0  0  0  0
  4 34  1  0  0  0  0
  4 35  1  0  0  0  0
  5  6  1  0  0  0  0
  6 12  2  0  0  0  0
  6  7  1  0  0  0  0
  7  8  2  0  0  0  0
  8  9  1  0  0  0  0
  8 15  1  0  0  0  0
  9 10  2  0  0  0  0
  9 36  1  0  0  0  0
 10 11  1  0  0  0  0
 10 12  1  0  0  0  0
 11 37  1  0  0  0  0
 11 38  1  0  0  0  0
 12 13  1  0  0  0  0
 13 14  3  0  0  0  0
 15 16  1  0  0  0  0
 15 39  1  0  0  0  0
 16 17  2  0  0  0  0
 16 18  1  0  0  0  0
 18 19  1  0  0  0  0
 18 40  1  0  0  0  0
 18 41  1  0  0  0  0
 19 26  2  0  0  0  0
 19 20  1  0  0  0  0
 20 21  1  0  0  0  0
 20 23  2  0  0  0  0
 21 22  1  0  0  0  0
 22 42  1  0  0  0  0
 22 43  1  0  0  0  0
 22 44  1  0  0  0  0
 23 24  1  0  0  0  0
 23 45  1  0  0  0  0
 24 25  2  0  0  0  0
 24 46  1  0  0  0  0
 25 26  1  0  0  0  0
 25 27  1  0  0  0  0
 26 47  1  0  0  0  0
 27 28  1  0  0  0  0
 28 48  1  0  0  0  0
 28 49  1  0  0  0  0
 28 50  1  0  0  0  0
M  END
$$$$
