p38a_2p
 OpenBabel02232411163D
Structure written by MMmdl.
 58 61  0  0  0  0  0  0  0  0999 V2000
   38.2510   36.5140   17.1840 C   0  0  0  0  0  0  0  0  0  0  0  0
   34.6350   35.1120   21.3470 C   0  0  0  0  0  0  0  0  0  0  0  0
   37.4790   36.0720   18.2550 C   0  0  0  0  0  0  0  0  0  0  0  0
   33.8050   39.2420   23.7290 C   0  0  0  0  0  0  0  0  0  0  0  0
   34.5570   37.9870   21.3890 C   0  0  0  0  0  0  0  0  0  0  0  0
   34.9610   37.3120   20.1870 C   0  0  0  0  0  0  0  0  0  0  0  0
   37.5900   36.6600   15.9570 C   0  0  0  0  0  0  0  0  0  0  0  0
   36.2380   36.3630   15.7710 C   0  0  0  0  0  0  0  0  0  0  0  0
   35.4870   35.9090   16.8600 C   0  0  0  0  0  0  0  0  0  0  0  0
   34.2440   37.2430   22.5650 C   0  0  0  0  0  0  0  0  0  0  0  0
   34.4850   39.4050   21.4840 C   0  0  0  0  0  0  0  0  0  0  0  0
   35.0160   35.9610   20.1880 C   0  0  0  0  0  0  0  0  0  0  0  0
   36.1130   35.7520   18.0990 C   0  0  0  0  0  0  0  0  0  0  0  0
   38.0270   35.9470   19.4560 F   0  0  0  0  0  0  0  0  0  0  0  0
   35.4090   35.1300   19.1400 O   0  0  0  0  0  0  0  0  0  0  0  0
   34.1410   40.0410   22.6100 N   0  0  0  0  0  0  0  0  0  0  0  0
   34.5860   33.9010   21.3370 O   0  0  0  0  0  0  0  0  0  0  0  0
   34.3380   35.8380   22.5560 N   0  0  0  0  0  0  0  0  0  0  0  0
   33.8620   37.8640   23.7310 N   0  0  0  0  0  0  0  0  0  0  0  0
   33.3900   39.9370   24.8370 N   0  0  0  0  0  0  0  0  0  0  0  0
   39.3080   36.7730   17.3030 H   0  0  0  0  0  0  0  0  0  0  0  0
   35.2180   37.9170   19.3140 H   0  0  0  0  0  0  0  0  0  0  0  0
   35.7560   36.4960   14.7990 H   0  0  0  0  0  0  0  0  0  0  0  0
   34.4200   35.6950   16.7370 H   0  0  0  0  0  0  0  0  0  0  0  0
   34.7190   40.0290   20.6050 H   0  0  0  0  0  0  0  0  0  0  0  0
   33.4930   40.9710   24.8390 H   0  0  0  0  0  0  0  0  0  0  0  0
   38.2790   37.1430   14.9260 F   0  0  0  0  0  0  0  0  0  0  0  0
   33.4390   38.1760   28.2610 C   0  0  0  0  0  0  0  0  0  0  0  0
   34.0030   38.6260   26.9070 C   0  0  0  0  0  0  0  0  0  0  0  0
   32.9070   39.3920   26.1400 C   0  0  0  0  0  0  0  0  0  0  0  0
   31.6500   38.5150   25.9890 C   0  0  0  0  0  0  0  0  0  0  0  0
   31.1900   38.0410   27.3750 C   0  0  0  0  0  0  0  0  0  0  0  0
   32.2450   37.3760   28.1060 O   0  0  0  0  0  0  0  0  0  0  0  0
   33.2060   39.0540   28.9070 H   0  0  0  0  0  0  0  0  0  0  0  0
   34.1340   37.4670   28.7700 H   0  0  0  0  0  0  0  0  0  0  0  0
   34.3310   37.7360   26.3170 H   0  0  0  0  0  0  0  0  0  0  0  0
   34.8880   39.2870   27.0700 H   0  0  0  0  0  0  0  0  0  0  0  0
   32.6310   40.3180   26.7310 H   0  0  0  0  0  0  0  0  0  0  0  0
   30.8320   39.0980   25.5040 H   0  0  0  0  0  0  0  0  0  0  0  0
   31.8750   37.6270   25.3480 H   0  0  0  0  0  0  0  0  0  0  0  0
   30.8160   38.8940   27.9850 H   0  0  0  0  0  0  0  0  0  0  0  0
   30.4240   37.2370   27.2860 H   0  0  0  0  0  0  0  0  0  0  0  0
   34.1980   35.0720   23.8400 C   0  0  0  0  0  0  0  0  0  0  0  0
   34.9240   34.2150   23.7990 H   0  0  0  0  0  0  0  0  0  0  0  0
   34.5030   35.7500   24.6860 H   0  0  0  0  0  0  0  0  0  0  0  0
   32.7640   34.5640   24.1090 C   0  0  0  0  0  0  0  0  0  0  0  0
   32.5420   34.7840   25.1860 H   0  0  0  0  0  0  0  0  0  0  0  0
   32.0320   35.1530   23.4970 H   0  0  0  0  0  0  0  0  0  0  0  0
   32.5930   33.0670   23.8170 C   0  0  0  0  0  0  0  0  0  0  0  0
   33.5940   32.5630   23.8760 H   0  0  0  0  0  0  0  0  0  0  0  0
   32.2430   32.9590   22.7540 H   0  0  0  0  0  0  0  0  0  0  0  0
   31.4780   32.2380   24.8970 S   0  0  0  0  0  0  0  0  0  0  0  0
   31.8470   32.4120   26.3210 O   0  0  0  0  0  0  0  0  0  0  0  0
   31.4470   30.7960   24.5380 O   0  0  0  0  0  0  0  0  0  0  0  0
   29.9090   32.9260   24.5970 C   0  0  0  0  0  0  0  0  0  0  0  0
   29.6050   32.8360   23.5210 H   0  0  0  0  0  0  0  0  0  0  0  0
   29.1250   32.4290   25.2160 H   0  0  0  0  0  0  0  0  0  0  0  0
   29.8630   34.0250   24.8270 H   0  0  0  0  0  0  0  0  0  0  0  0
  1  3  2  0  0  0  0
  1  7  1  0  0  0  0
  1 21  1  0  0  0  0
  2 12  1  0  0  0  0
  2 17  2  0  0  0  0
  2 18  1  0  0  0  0
  3 13  1  0  0  0  0
  3 14  1  0  0  0  0
  4 16  2  0  0  0  0
  4 19  1  0  0  0  0
  4 20  1  0  0  0  0
  5  6  1  0  0  0  0
  5 10  1  0  0  0  0
  5 11  2  0  0  0  0
  6 12  2  0  0  0  0
  6 22  1  0  0  0  0
  7  8  2  0  0  0  0
  7 27  1  0  0  0  0
  8  9  1  0  0  0  0
  8 23  1  0  0  0  0
  9 13  2  0  0  0  0
  9 24  1  0  0  0  0
 10 18  1  0  0  0  0
 10 19  2  0  0  0  0
 11 16  1  0  0  0  0
 11 25  1  0  0  0  0
 12 15  1  0  0  0  0
 13 15  1  0  0  0  0
 18 43  1  0  0  0  0
 20 26  1  0  0  0  0
 20 30  1  0  0  0  0
 28 29  1  0  0  0  0
 28 33  1  0  0  0  0
 28 34  1  0  0  0  0
 28 35  1  0  0  0  0
 29 30  1  0  0  0  0
 29 36  1  0  0  0  0
 29 37  1  0  0  0  0
 30 31  1  0  0  0  0
 30 38  1  0  0  0  0
 31 32  1  0  0  0  0
 31 39  1  0  0  0  0
 31 40  1  0  0  0  0
 32 33  1  0  0  0  0
 32 41  1  0  0  0  0
 32 42  1  0  0  0  0
 43 44  1  0  0  0  0
 43 45  1  0  0  0  0
 43 46  1  0  0  0  0
 46 47  1  0  0  0  0
 46 48  1  0  0  0  0
 46 49  1  0  0  0  0
 49 50  1  0  0  0  0
 49 51  1  0  0  0  0
 49 52  1  0  0  0  0
 52 53  2  0  0  0  0
 52 54  2  0  0  0  0
 52 55  1  0  0  0  0
 55 56  1  0  0  0  0
 55 57  1  0  0  0  0
 55 58  1  0  0  0  0
M  END
$$$$
