p38a_2o
 OpenBabel02232411163D
Structure written by MMmdl.
 55 58  0  0  0  0  0  0  0  0999 V2000
   36.3300   35.9660   15.8900 C   0  0  0  0  0  0  0  0  0  0  0  0
   34.5750   35.0390   21.4850 C   0  0  0  0  0  0  0  0  0  0  0  0
   35.6550   35.5150   17.0200 C   0  0  0  0  0  0  0  0  0  0  0  0
   34.1950   39.1860   23.9500 C   0  0  0  0  0  0  0  0  0  0  0  0
   34.7980   37.9080   21.5820 C   0  0  0  0  0  0  0  0  0  0  0  0
   35.1900   37.2120   20.3850 C   0  0  0  0  0  0  0  0  0  0  0  0
   37.6230   36.4660   16.0920 C   0  0  0  0  0  0  0  0  0  0  0  0
   38.2520   36.4930   17.3410 C   0  0  0  0  0  0  0  0  0  0  0  0
   37.5400   36.0660   18.4670 C   0  0  0  0  0  0  0  0  0  0  0  0
   34.4290   37.1740   22.7460 C   0  0  0  0  0  0  0  0  0  0  0  0
   34.7710   39.3250   21.6820 C   0  0  0  0  0  0  0  0  0  0  0  0
   35.1250   35.8610   20.3700 C   0  0  0  0  0  0  0  0  0  0  0  0
   36.2390   35.5790   18.3010 C   0  0  0  0  0  0  0  0  0  0  0  0
   34.4390   34.9950   16.9150 F   0  0  0  0  0  0  0  0  0  0  0  0
   35.4900   35.0020   19.3360 O   0  0  0  0  0  0  0  0  0  0  0  0
   34.4780   39.9760   22.8180 N   0  0  0  0  0  0  0  0  0  0  0  0
   34.3530   33.8510   21.4330 O   0  0  0  0  0  0  0  0  0  0  0  0
   34.3200   35.7700   22.7030 N   0  0  0  0  0  0  0  0  0  0  0  0
   34.1670   37.8050   23.9350 N   0  0  0  0  0  0  0  0  0  0  0  0
   33.8680   39.8370   25.1170 N   0  0  0  0  0  0  0  0  0  0  0  0
   35.8680   35.9560   14.8990 H   0  0  0  0  0  0  0  0  0  0  0  0
   35.5440   37.8060   19.5390 H   0  0  0  0  0  0  0  0  0  0  0  0
   39.2730   36.8700   17.4440 H   0  0  0  0  0  0  0  0  0  0  0  0
   37.9940   36.1400   19.4570 H   0  0  0  0  0  0  0  0  0  0  0  0
   34.9930   39.9400   20.7940 H   0  0  0  0  0  0  0  0  0  0  0  0
   33.9410   40.8710   25.1690 H   0  0  0  0  0  0  0  0  0  0  0  0
   38.2680   36.9740   15.0440 F   0  0  0  0  0  0  0  0  0  0  0  0
   32.6220   39.1670   28.6670 C   0  0  0  0  0  0  0  0  0  0  0  0
   32.6440   39.7730   27.2570 C   0  0  0  0  0  0  0  0  0  0  0  0
   33.7760   39.1290   26.4300 C   0  0  0  0  0  0  0  0  0  0  0  0
   35.1220   39.2400   27.1800 C   0  0  0  0  0  0  0  0  0  0  0  0
   34.9830   38.6640   28.5940 C   0  0  0  0  0  0  0  0  0  0  0  0
   33.9030   39.2920   29.3240 O   0  0  0  0  0  0  0  0  0  0  0  0
   32.3330   38.0910   28.6280 H   0  0  0  0  0  0  0  0  0  0  0  0
   31.9490   39.7460   29.3410 H   0  0  0  0  0  0  0  0  0  0  0  0
   32.7990   40.8760   27.3240 H   0  0  0  0  0  0  0  0  0  0  0  0
   31.6640   39.5850   26.7550 H   0  0  0  0  0  0  0  0  0  0  0  0
   33.5280   38.0470   26.2480 H   0  0  0  0  0  0  0  0  0  0  0  0
   35.9060   38.6740   26.6250 H   0  0  0  0  0  0  0  0  0  0  0  0
   35.4310   40.3120   27.2340 H   0  0  0  0  0  0  0  0  0  0  0  0
   34.8010   37.5650   28.5580 H   0  0  0  0  0  0  0  0  0  0  0  0
   35.8690   38.9170   29.2210 H   0  0  0  0  0  0  0  0  0  0  0  0
   33.8210   35.0310   23.9200 C   0  0  0  0  0  0  0  0  0  0  0  0
   34.0530   33.9420   23.7680 H   0  0  0  0  0  0  0  0  0  0  0  0
   34.3900   35.4230   24.8130 H   0  0  0  0  0  0  0  0  0  0  0  0
   32.3220   35.2620   24.1200 C   0  0  0  0  0  0  0  0  0  0  0  0
   32.1750   36.3390   24.4400 H   0  0  0  0  0  0  0  0  0  0  0  0
   31.7780   35.1720   23.1420 H   0  0  0  0  0  0  0  0  0  0  0  0
   31.5430   34.2150   25.3120 S   0  0  0  0  0  0  0  0  0  0  0  0
   32.4460   33.8540   26.4230 O   0  0  0  0  0  0  0  0  0  0  0  0
   31.0540   32.9880   24.6370 O   0  0  0  0  0  0  0  0  0  0  0  0
   30.2170   35.1830   25.8670 C   0  0  0  0  0  0  0  0  0  0  0  0
   29.5670   35.5470   25.0300 H   0  0  0  0  0  0  0  0  0  0  0  0
   29.5440   34.6490   26.5870 H   0  0  0  0  0  0  0  0  0  0  0  0
   30.5570   36.1010   26.4210 H   0  0  0  0  0  0  0  0  0  0  0  0
  1  3  2  0  0  0  0
  1  7  1  0  0  0  0
  1 21  1  0  0  0  0
  2 12  1  0  0  0  0
  2 17  2  0  0  0  0
  2 18  1  0  0  0  0
  3 13  1  0  0  0  0
  3 14  1  0  0  0  0
  4 16  2  0  0  0  0
  4 19  1  0  0  0  0
  4 20  1  0  0  0  0
  5  6  1  0  0  0  0
  5 10  1  0  0  0  0
  5 11  2  0  0  0  0
  6 12  2  0  0  0  0
  6 22  1  0  0  0  0
  7  8  2  0  0  0  0
  7 27  1  0  0  0  0
  8  9  1  0  0  0  0
  8 23  1  0  0  0  0
  9 13  2  0  0  0  0
  9 24  1  0  0  0  0
 10 18  1  0  0  0  0
 10 19  2  0  0  0  0
 11 16  1  0  0  0  0
 11 25  1  0  0  0  0
 12 15  1  0  0  0  0
 13 15  1  0  0  0  0
 18 43  1  0  0  0  0
 20 26  1  0  0  0  0
 20 30  1  0  0  0  0
 28 29  1  0  0  0  0
 28 33  1  0  0  0  0
 28 34  1  0  0  0  0
 28 35  1  0  0  0  0
 29 30  1  0  0  0  0
 29 36  1  0  0  0  0
 29 37  1  0  0  0  0
 30 31  1  0  0  0  0
 30 38  1  0  0  0  0
 31 32  1  0  0  0  0
 31 39  1  0  0  0  0
 31 40  1  0  0  0  0
 32 33  1  0  0  0  0
 32 41  1  0  0  0  0
 32 42  1  0  0  0  0
 43 44  1  0  0  0  0
 43 45  1  0  0  0  0
 43 46  1  0  0  0  0
 46 47  1  0  0  0  0
 46 48  1  0  0  0  0
 46 49  1  0  0  0  0
 49 50  2  0  0  0  0
 49 51  2  0  0  0  0
 49 52  1  0  0  0  0
 52 53  1  0  0  0  0
 52 54  1  0  0  0  0
 52 55  1  0  0  0  0
M  END
$$$$
