p38a_2z
 OpenBabel02232411163D
Structure written by MMmdl.
 45 47  0  0  0  0  0  0  0  0999 V2000
   38.2730   36.5470   17.1540 C   0  0  0  0  0  0  0  0  0  0  0  0
   34.5660   35.0930   21.2050 C   0  0  0  0  0  0  0  0  0  0  0  0
   37.4680   36.1000   18.1990 C   0  0  0  0  0  0  0  0  0  0  0  0
   34.0660   39.1090   23.8620 C   0  0  0  0  0  0  0  0  0  0  0  0
   33.6870   39.0300   26.3990 C   0  0  0  0  0  0  0  0  0  0  0  0
   34.6570   37.9650   21.4160 C   0  0  0  0  0  0  0  0  0  0  0  0
   35.0230   37.3380   20.1760 C   0  0  0  0  0  0  0  0  0  0  0  0
   37.6430   36.7210   15.9140 C   0  0  0  0  0  0  0  0  0  0  0  0
   36.2920   36.4460   15.6900 C   0  0  0  0  0  0  0  0  0  0  0  0
   35.5080   35.9870   16.7530 C   0  0  0  0  0  0  0  0  0  0  0  0
   34.3340   37.1680   22.5540 C   0  0  0  0  0  0  0  0  0  0  0  0
   34.6140   39.3750   21.5920 C   0  0  0  0  0  0  0  0  0  0  0  0
   35.0090   35.9860   20.1030 C   0  0  0  0  0  0  0  0  0  0  0  0
   36.1010   35.8070   18.0060 C   0  0  0  0  0  0  0  0  0  0  0  0
   33.9450   34.9570   23.6460 C   0  0  0  0  0  0  0  0  0  0  0  0
   37.9850   35.9460   19.4110 F   0  0  0  0  0  0  0  0  0  0  0  0
   35.3520   35.1880   19.0130 O   0  0  0  0  0  0  0  0  0  0  0  0
   34.3330   39.9580   22.7660 N   0  0  0  0  0  0  0  0  0  0  0  0
   34.4260   33.8920   21.1240 O   0  0  0  0  0  0  0  0  0  0  0  0
   34.2940   35.7680   22.4450 N   0  0  0  0  0  0  0  0  0  0  0  0
   34.0490   37.7310   23.7720 N   0  0  0  0  0  0  0  0  0  0  0  0
   33.7430   39.7170   25.0550 N   0  0  0  0  0  0  0  0  0  0  0  0
   39.3300   36.7870   17.3010 H   0  0  0  0  0  0  0  0  0  0  0  0
   33.4230   40.1290   27.4430 C   0  0  0  0  0  0  0  0  0  0  0  0
   35.3110   37.9750   19.3370 H   0  0  0  0  0  0  0  0  0  0  0  0
   35.8370   36.5990   14.7090 H   0  0  0  0  0  0  0  0  0  0  0  0
   34.4430   35.7850   16.5990 H   0  0  0  0  0  0  0  0  0  0  0  0
   34.8170   40.0410   20.7360 H   0  0  0  0  0  0  0  0  0  0  0  0
   34.6170   35.2310   24.5030 H   0  0  0  0  0  0  0  0  0  0  0  0
   32.8810   35.1570   23.9450 H   0  0  0  0  0  0  0  0  0  0  0  0
   34.0650   33.8640   23.4240 H   0  0  0  0  0  0  0  0  0  0  0  0
   33.8080   40.7580   25.1030 H   0  0  0  0  0  0  0  0  0  0  0  0
   38.3610   37.2120   14.9070 F   0  0  0  0  0  0  0  0  0  0  0  0
   32.4890   38.0270   26.3790 C   0  0  0  0  0  0  0  0  0  0  0  0
   35.0180   38.3210   26.6970 C   0  0  0  0  0  0  0  0  0  0  0  0
   32.1840   37.5740   27.7070 O   0  0  0  0  0  0  0  0  0  0  0  0
   32.9220   37.0010   28.0360 H   0  0  0  0  0  0  0  0  0  0  0  0
   31.5500   38.5420   26.0700 H   0  0  0  0  0  0  0  0  0  0  0  0
   32.7060   37.1420   25.7390 H   0  0  0  0  0  0  0  0  0  0  0  0
   35.0510   38.0090   27.7660 H   0  0  0  0  0  0  0  0  0  0  0  0
   35.1490   37.4160   26.0630 H   0  0  0  0  0  0  0  0  0  0  0  0
   35.8730   39.0100   26.5190 H   0  0  0  0  0  0  0  0  0  0  0  0
   33.2500   39.6620   28.4390 H   0  0  0  0  0  0  0  0  0  0  0  0
   34.2910   40.8230   27.5230 H   0  0  0  0  0  0  0  0  0  0  0  0
   32.5220   40.7250   27.1770 H   0  0  0  0  0  0  0  0  0  0  0  0
  1  3  2  0  0  0  0
  1  8  1  0  0  0  0
  1 23  1  0  0  0  0
  2 13  1  0  0  0  0
  2 19  2  0  0  0  0
  2 20  1  0  0  0  0
  3 14  1  0  0  0  0
  3 16  1  0  0  0  0
  4 18  2  0  0  0  0
  4 21  1  0  0  0  0
  4 22  1  0  0  0  0
  5 22  1  0  0  0  0
  5 24  1  0  0  0  0
  5 34  1  0  0  0  0
  5 35  1  0  0  0  0
  6  7  1  0  0  0  0
  6 11  1  0  0  0  0
  6 12  2  0  0  0  0
  7 13  2  0  0  0  0
  7 25  1  0  0  0  0
  8  9  2  0  0  0  0
  8 33  1  0  0  0  0
  9 10  1  0  0  0  0
  9 26  1  0  0  0  0
 10 14  2  0  0  0  0
 10 27  1  0  0  0  0
 11 20  1  0  0  0  0
 11 21  2  0  0  0  0
 12 18  1  0  0  0  0
 12 28  1  0  0  0  0
 13 17  1  0  0  0  0
 14 17  1  0  0  0  0
 15 20  1  0  0  0  0
 15 29  1  0  0  0  0
 15 30  1  0  0  0  0
 15 31  1  0  0  0  0
 22 32  1  0  0  0  0
 24 43  1  0  0  0  0
 24 44  1  0  0  0  0
 24 45  1  0  0  0  0
 34 36  1  0  0  0  0
 34 38  1  0  0  0  0
 34 39  1  0  0  0  0
 35 40  1  0  0  0  0
 35 41  1  0  0  0  0
 35 42  1  0  0  0  0
 36 37  1  0  0  0  0
M  END
$$$$
