CAT-13i
 OpenBabel02232411143D
Structure written by MMmdl.
 46 49  0  0  1  0  0  0  0  0999 V2000
   11.6300   -2.1960    1.2430 C   0  0  0  0  0  0  0  0  0  0  0  0
   12.9850   -2.2220    0.6550 N   0  0  0  0  0  0  0  0  0  0  0  0
   14.1600   -2.3340    1.3980 C   0  0  0  0  0  0  0  0  0  0  0  0
   14.2850   -2.4010    2.7520 N   0  0  0  0  0  0  0  0  0  0  0  0
   15.2620   -2.4050    0.5390 N   0  3  0  0  0  0  0  0  0  0  0  0
   14.8020   -2.7220   -0.8650 C   0  0  2  0  0  0  0  0  0  0  0  0
   14.9700   -4.2290   -1.1500 C   0  0  0  0  0  0  0  0  0  0  0  0
   13.9100   -5.0860   -0.4810 C   0  0  0  0  0  0  0  0  0  0  0  0
   14.2500   -6.4490    0.1060 C   0  0  0  0  0  0  0  0  0  0  0  0
   13.8880   -5.3070    1.0290 C   0  0  0  0  0  0  0  0  0  0  0  0
   15.4640   -1.7380   -1.8090 C   0  0  0  0  0  0  0  0  0  0  0  0
   16.3490   -2.1420   -2.8140 C   0  0  0  0  0  0  0  0  0  0  0  0
   16.8730   -1.1870   -3.6930 C   0  0  0  0  0  0  0  0  0  0  0  0
   16.5390    0.1620   -3.5660 C   0  0  0  0  0  0  0  0  0  0  0  0
   15.7030    0.5860   -2.5190 C   0  0  0  0  0  0  0  0  0  0  0  0
   15.4040    2.0210   -2.3090 C   0  0  0  0  0  0  0  0  0  0  0  0
   15.5510    2.5740   -1.0260 C   0  0  0  0  0  0  0  0  0  0  0  0
   15.2040    3.9050   -0.7800 C   0  0  0  0  0  0  0  0  0  0  0  0
   14.7250    4.7080   -1.8180 C   0  0  0  0  0  0  0  0  0  0  0  0
   14.6360    4.1620   -3.1020 C   0  0  0  0  0  0  0  0  0  0  0  0
   14.1000    5.1670   -4.3890 Cl  0  0  0  0  0  0  0  0  0  0  0  0
   14.9600    2.8300   -3.3680 C   0  0  0  0  0  0  0  0  0  0  0  0
   15.1610   -0.3730   -1.6530 C   0  0  0  0  0  0  0  0  0  0  0  0
   13.2710   -2.4080   -0.7830 C   0  0  0  0  0  0  0  0  0  0  0  0
   12.4290   -2.2970   -1.6160 O   0  0  0  0  0  0  0  0  0  0  0  0
   11.6600   -2.4630    2.3310 H   0  0  0  0  0  0  0  0  0  0  0  0
   11.2040   -1.1640    1.1220 H   0  0  0  0  0  0  0  0  0  0  0  0
   10.9800   -2.9440    0.7150 H   0  0  0  0  0  0  0  0  0  0  0  0
   13.5660   -2.0020    3.4010 H   0  0  0  0  0  0  0  0  0  0  0  0
   16.1660   -2.8000    0.9090 H   0  0  0  0  0  0  0  0  0  0  0  0
   15.9940   -4.5410   -0.8190 H   0  0  0  0  0  0  0  0  0  0  0  0
   14.8920   -4.4040   -2.2550 H   0  0  0  0  0  0  0  0  0  0  0  0
   12.9350   -5.0090   -0.9880 H   0  0  0  0  0  0  0  0  0  0  0  0
   13.5230   -7.2640   -0.0300 H   0  0  0  0  0  0  0  0  0  0  0  0
   15.2870   -6.7930    0.0690 H   0  0  0  0  0  0  0  0  0  0  0  0
   14.6730   -4.8690    1.6530 H   0  0  0  0  0  0  0  0  0  0  0  0
   12.9210   -5.3210    1.5470 H   0  0  0  0  0  0  0  0  0  0  0  0
   16.6400   -3.1880   -2.9160 H   0  0  0  0  0  0  0  0  0  0  0  0
   17.5600   -1.4980   -4.4860 H   0  0  0  0  0  0  0  0  0  0  0  0
   16.9370    0.8880   -4.2810 H   0  0  0  0  0  0  0  0  0  0  0  0
   15.9300    1.9540   -0.2110 H   0  0  0  0  0  0  0  0  0  0  0  0
   15.2990    4.3060    0.2330 H   0  0  0  0  0  0  0  0  0  0  0  0
   14.4100    5.7360   -1.6200 H   0  0  0  0  0  0  0  0  0  0  0  0
   14.8630    2.4170   -4.3770 H   0  0  0  0  0  0  0  0  0  0  0  0
   14.5050   -0.0570   -0.8420 H   0  0  0  0  0  0  0  0  0  0  0  0
   15.2560   -2.3860    3.1700 H   0  0  0  0  0  0  0  0  0  0  0  0
  1  2  1  0  0  0  0
  1 26  1  0  0  0  0
  1 27  1  0  0  0  0
  1 28  1  0  0  0  0
  2  3  1  0  0  0  0
  2 24  1  0  0  0  0
  3  4  1  0  0  0  0
  3  5  2  0  0  0  0
  4 29  1  0  0  0  0
  4 46  1  0  0  0  0
  5  6  1  0  0  0  0
  5 30  1  0  0  0  0
  6  7  1  6  0  0  0
  6 11  1  0  0  0  0
  6 24  1  0  0  0  0
  7  8  1  0  0  0  0
  7 31  1  0  0  0  0
  7 32  1  0  0  0  0
  8  9  1  0  0  0  0
  8 10  1  0  0  0  0
  8 33  1  0  0  0  0
  9 10  1  0  0  0  0
  9 34  1  0  0  0  0
  9 35  1  0  0  0  0
 10 36  1  0  0  0  0
 10 37  1  0  0  0  0
 11 12  2  0  0  0  0
 11 23  1  0  0  0  0
 12 13  1  0  0  0  0
 12 38  1  0  0  0  0
 13 14  2  0  0  0  0
 13 39  1  0  0  0  0
 14 15  1  0  0  0  0
 14 40  1  0  0  0  0
 15 16  1  0  0  0  0
 15 23  2  0  0  0  0
 16 17  2  0  0  0  0
 16 22  1  0  0  0  0
 17 18  1  0  0  0  0
 17 41  1  0  0  0  0
 18 19  2  0  0  0  0
 18 42  1  0  0  0  0
 19 20  1  0  0  0  0
 19 43  1  0  0  0  0
 20 21  1  0  0  0  0
 20 22  2  0  0  0  0
 22 44  1  0  0  0  0
 23 45  1  0  0  0  0
 24 25  2  0  0  0  0
M  CHG  1   5   1
M  END
$$$$
