p38a_2m
 OpenBabel02232411163D
Structure written by MMmdl.
 50 54  0  0  0  0  0  0  0  0999 V2000
   36.3970   36.1290   15.7150 C   0  0  0  0  0  0  0  0  0  0  0  0
   34.4880   34.9570   21.0930 C   0  0  0  0  0  0  0  0  0  0  0  0
   35.7900   35.6200   16.8590 C   0  0  0  0  0  0  0  0  0  0  0  0
   33.8160   38.9600   23.7340 C   0  0  0  0  0  0  0  0  0  0  0  0
   34.7590   37.8080   21.4110 C   0  0  0  0  0  0  0  0  0  0  0  0
   35.3410   37.1730   20.2590 C   0  0  0  0  0  0  0  0  0  0  0  0
   37.6890   36.6460   15.8720 C   0  0  0  0  0  0  0  0  0  0  0  0
   38.3770   36.6460   17.0880 C   0  0  0  0  0  0  0  0  0  0  0  0
   37.7310   36.1640   18.2320 C   0  0  0  0  0  0  0  0  0  0  0  0
   34.1070   37.0270   22.4080 C   0  0  0  0  0  0  0  0  0  0  0  0
   34.8280   39.2110   21.6360 C   0  0  0  0  0  0  0  0  0  0  0  0
   35.2360   35.8310   20.1450 C   0  0  0  0  0  0  0  0  0  0  0  0
   36.4380   35.6500   18.1110 C   0  0  0  0  0  0  0  0  0  0  0  0
   34.5810   35.0800   16.7980 F   0  0  0  0  0  0  0  0  0  0  0  0
   35.7730   35.0040   19.1610 O   0  0  0  0  0  0  0  0  0  0  0  0
   34.3840   39.8010   22.7550 N   0  0  0  0  0  0  0  0  0  0  0  0
   34.3360   33.7680   20.9310 O   0  0  0  0  0  0  0  0  0  0  0  0
   33.9350   35.6330   22.2400 N   0  0  0  0  0  0  0  0  0  0  0  0
   33.6370   37.5990   23.5610 N   0  0  0  0  0  0  0  0  0  0  0  0
   33.4080   39.5250   24.9160 N   0  0  0  0  0  0  0  0  0  0  0  0
   35.8860   36.1440   14.7500 H   0  0  0  0  0  0  0  0  0  0  0  0
   35.8580   37.7990   19.5290 H   0  0  0  0  0  0  0  0  0  0  0  0
   39.3920   37.0450   17.1620 H   0  0  0  0  0  0  0  0  0  0  0  0
   38.2340   36.2160   19.2010 H   0  0  0  0  0  0  0  0  0  0  0  0
   35.2660   39.8650   20.8640 H   0  0  0  0  0  0  0  0  0  0  0  0
   33.5510   40.5380   25.0840 H   0  0  0  0  0  0  0  0  0  0  0  0
   38.2730   37.1960   14.8100 F   0  0  0  0  0  0  0  0  0  0  0  0
   32.9970   40.3350   27.9900 C   0  0  0  0  0  0  0  0  0  0  0  0
   32.0470   39.6780   26.9800 C   0  0  0  0  0  0  0  0  0  0  0  0
   32.7620   38.7210   26.0060 C   0  0  0  0  0  0  0  0  0  0  0  0
   33.7740   37.8250   26.7500 C   0  0  0  0  0  0  0  0  0  0  0  0
   34.6570   38.6150   27.7160 C   0  0  0  0  0  0  0  0  0  0  0  0
   33.8540   39.3790   28.6470 O   0  0  0  0  0  0  0  0  0  0  0  0
   32.4310   40.7760   28.8420 H   0  0  0  0  0  0  0  0  0  0  0  0
   33.6360   41.0980   27.4920 H   0  0  0  0  0  0  0  0  0  0  0  0
   31.5300   40.4810   26.4000 H   0  0  0  0  0  0  0  0  0  0  0  0
   31.2690   39.0870   27.5240 H   0  0  0  0  0  0  0  0  0  0  0  0
   31.9860   38.0570   25.5210 H   0  0  0  0  0  0  0  0  0  0  0  0
   33.1860   37.0560   27.3160 H   0  0  0  0  0  0  0  0  0  0  0  0
   34.4190   37.2740   26.0220 H   0  0  0  0  0  0  0  0  0  0  0  0
   35.2230   37.9380   28.3960 H   0  0  0  0  0  0  0  0  0  0  0  0
   35.3330   39.3110   27.1680 H   0  0  0  0  0  0  0  0  0  0  0  0
   33.1940   34.8960   23.2860 C   0  0  0  0  0  0  0  0  0  0  0  0
   33.6730   33.5420   23.7930 C   0  0  0  0  0  0  0  0  0  0  0  0
   32.3960   33.6380   22.9740 C   0  0  0  0  0  0  0  0  0  0  0  0
   32.7540   35.5830   24.0450 H   0  0  0  0  0  0  0  0  0  0  0  0
   34.5570   33.0600   23.3640 H   0  0  0  0  0  0  0  0  0  0  0  0
   33.5900   33.3540   24.8750 H   0  0  0  0  0  0  0  0  0  0  0  0
   32.3700   33.2170   21.9620 H   0  0  0  0  0  0  0  0  0  0  0  0
   31.4310   33.5240   23.4930 H   0  0  0  0  0  0  0  0  0  0  0  0
  1  3  2  0  0  0  0
  1  7  1  0  0  0  0
  1 21  1  0  0  0  0
  2 12  1  0  0  0  0
  2 17  2  0  0  0  0
  2 18  1  0  0  0  0
  3 13  1  0  0  0  0
  3 14  1  0  0  0  0
  4 16  2  0  0  0  0
  4 19  1  0  0  0  0
  4 20  1  0  0  0  0
  5  6  1  0  0  0  0
  5 10  1  0  0  0  0
  5 11  2  0  0  0  0
  6 12  2  0  0  0  0
  6 22  1  0  0  0  0
  7  8  2  0  0  0  0
  7 27  1  0  0  0  0
  8  9  1  0  0  0  0
  8 23  1  0  0  0  0
  9 13  2  0  0  0  0
  9 24  1  0  0  0  0
 10 18  1  0  0  0  0
 10 19  2  0  0  0  0
 11 16  1  0  0  0  0
 11 25  1  0  0  0  0
 12 15  1  0  0  0  0
 13 15  1  0  0  0  0
 18 43  1  0  0  0  0
 20 26  1  0  0  0  0
 20 30  1  0  0  0  0
 28 29  1  0  0  0  0
 28 33  1  0  0  0  0
 28 34  1  0  0  0  0
 28 35  1  0  0  0  0
 29 30  1  0  0  0  0
 29 36  1  0  0  0  0
 29 37  1  0  0  0  0
 30 31  1  0  0  0  0
 30 38  1  0  0  0  0
 31 32  1  0  0  0  0
 31 39  1  0  0  0  0
 31 40  1  0  0  0  0
 32 33  1  0  0  0  0
 32 41  1  0  0  0  0
 32 42  1  0  0  0  0
 43 44  1  0  0  0  0
 43 45  1  0  0  0  0
 43 46  1  0  0  0  0
 44 45  1  0  0  0  0
 44 47  1  0  0  0  0
 44 48  1  0  0  0  0
 45 49  1  0  0  0  0
 45 50  1  0  0  0  0
M  END
$$$$
