jmc_28
 OpenBabel02232411173D
Structure written by MMmdl.
 39 41  0  0  1  0  0  0  0  0999 V2000
   -1.5520   21.5210  -27.5890 C   0  0  0  0  0  0  0  0  0  0  0  0
   -1.0690   22.5990  -28.3360 C   0  0  0  0  0  0  0  0  0  0  0  0
   -1.8680   23.1460  -29.3420 C   0  0  0  0  0  0  0  0  0  0  0  0
   -3.1420   22.6410  -29.6340 C   0  0  0  0  0  0  0  0  0  0  0  0
   -3.6040   21.5650  -28.8590 C   0  0  0  0  0  0  0  0  0  0  0  0
   -2.8260   21.0050  -27.8450 C   0  0  0  0  0  0  0  0  0  0  0  0
   -5.1600   20.9170  -29.1720 Cl  0  0  0  0  0  0  0  0  0  0  0  0
   -4.0030   23.1460  -30.7550 C   0  0  0  0  0  0  0  0  0  0  0  0
   -4.4080   22.4220  -31.6380 O   0  0  0  0  0  0  0  0  0  0  0  0
   -4.3160   24.5170  -30.6550 N   0  0  0  0  0  0  0  0  0  0  0  0
   -5.1670   25.2600  -31.5230 C   0  0  0  0  0  0  0  0  0  0  0  0
   -5.8450   24.6960  -32.6160 C   0  0  0  0  0  0  0  0  0  0  0  0
   -6.7020   25.5180  -33.3610 C   0  0  0  0  0  0  0  0  0  0  0  0
   -6.9030   26.8320  -33.0920 N   0  0  0  0  0  0  0  0  0  0  0  0
   -6.2180   27.3760  -32.0230 C   0  0  0  0  0  0  0  0  0  0  0  0
   -5.3410   26.6280  -31.2250 C   0  0  0  0  0  0  0  0  0  0  0  0
   -6.5010   28.7500  -31.7850 N   0  0  0  0  0  0  0  0  0  0  0  0
   -5.7450   29.6290  -30.9630 C   0  0  0  0  0  0  0  0  0  0  0  0
   -4.7650   29.2280  -30.3610 O   0  0  0  0  0  0  0  0  0  0  0  0
   -6.2810   31.0200  -30.9050 C   0  0  1  0  0  0  0  0  0  0  0  0
   -5.9320   31.9080  -29.7120 C   0  0  0  0  0  0  0  0  0  0  0  0
   -5.3540   32.2400  -31.0690 C   0  0  1  0  0  0  0  0  0  0  0  0
   -3.8840   32.0950  -31.3550 C   0  0  0  0  0  0  0  0  0  0  0  0
   -1.2440   24.4810  -30.2170 Cl  0  0  0  0  0  0  0  0  0  0  0  0
   -7.2920   31.1440  -31.3280 H   0  0  0  0  0  0  0  0  0  0  0  0
   -5.8110   33.0920  -31.6030 H   0  0  0  0  0  0  0  0  0  0  0  0
   -0.9310   21.0840  -26.7990 H   0  0  0  0  0  0  0  0  0  0  0  0
   -0.0770   23.0050  -28.1170 H   0  0  0  0  0  0  0  0  0  0  0  0
   -3.1950   20.1760  -27.2400 H   0  0  0  0  0  0  0  0  0  0  0  0
   -3.9070   25.0470  -29.8630 H   0  0  0  0  0  0  0  0  0  0  0  0
   -5.7370   23.6420  -32.8840 H   0  0  0  0  0  0  0  0  0  0  0  0
   -7.2640   25.1060  -34.2160 H   0  0  0  0  0  0  0  0  0  0  0  0
   -4.8030   27.0950  -30.3940 H   0  0  0  0  0  0  0  0  0  0  0  0
   -7.3960   29.1060  -32.1920 H   0  0  0  0  0  0  0  0  0  0  0  0
   -6.7290   32.5500  -29.3110 H   0  0  0  0  0  0  0  0  0  0  0  0
   -5.2710   31.5190  -28.9270 H   0  0  0  0  0  0  0  0  0  0  0  0
   -3.3580   33.0260  -31.0340 H   0  0  0  0  0  0  0  0  0  0  0  0
   -3.4400   31.2380  -30.7920 H   0  0  0  0  0  0  0  0  0  0  0  0
   -3.7300   31.9280  -32.4430 H   0  0  0  0  0  0  0  0  0  0  0  0
  1  2  2  0  0  0  0
  1  6  1  0  0  0  0
  1 27  1  0  0  0  0
  2  3  1  0  0  0  0
  2 28  1  0  0  0  0
  3  4  2  0  0  0  0
  3 24  1  0  0  0  0
  4  5  1  0  0  0  0
  4  8  1  0  0  0  0
  5  6  2  0  0  0  0
  5  7  1  0  0  0  0
  6 29  1  0  0  0  0
  8  9  2  0  0  0  0
  8 10  1  0  0  0  0
 10 11  1  0  0  0  0
 10 30  1  0  0  0  0
 11 12  2  0  0  0  0
 11 16  1  0  0  0  0
 12 13  1  0  0  0  0
 12 31  1  0  0  0  0
 13 14  2  0  0  0  0
 13 32  1  0  0  0  0
 14 15  1  0  0  0  0
 15 16  2  0  0  0  0
 15 17  1  0  0  0  0
 16 33  1  0  0  0  0
 17 18  1  0  0  0  0
 17 34  1  0  0  0  0
 18 19  2  0  0  0  0
 18 20  1  0  0  0  0
 20 21  1  0  0  0  0
 20 22  1  0  0  0  0
 20 25  1  6  0  0  0
 21 22  1  0  0  0  0
 21 35  1  0  0  0  0
 21 36  1  0  0  0  0
 22 23  1  0  0  0  0
 22 26  1  6  0  0  0
 23 37  1  0  0  0  0
 23 38  1  0  0  0  0
 23 39  1  0  0  0  0
M  END
$$$$
