27
 OpenBabel02232411163D
Structure written by MMmdl.
 38 40  0  0  0  0  0  0  0  0999 V2000
    3.3900  -48.2040    7.1010 O   0  0  0  0  0  0  0  0  0  0  0  0
    3.0080  -49.1870    6.4530 C   0  0  0  0  0  0  0  0  0  0  0  0
    3.7260  -50.0170    5.8630 O   0  5  0  0  0  0  0  0  0  0  0  0
    1.4950  -49.4680    6.3650 C   0  0  0  0  0  0  0  0  0  0  0  0
   -0.3720  -50.7850    6.5180 C   0  0  0  0  0  0  0  0  0  0  0  0
   -1.3010  -51.8160    6.7410 C   0  0  0  0  0  0  0  0  0  0  0  0
   -2.6310  -51.5530    6.4470 C   0  0  0  0  0  0  0  0  0  0  0  0
   -3.0350  -50.2970    5.9360 C   0  0  0  0  0  0  0  0  0  0  0  0
   -2.1230  -49.2740    5.7150 C   0  0  0  0  0  0  0  0  0  0  0  0
   -0.7670  -49.4940    6.0110 C   0  0  0  0  0  0  0  0  0  0  0  0
    0.4290  -48.6820    5.9410 C   0  0  0  0  0  0  0  0  0  0  0  0
    0.4350  -47.2640    5.4940 C   0  0  0  0  0  0  0  0  0  0  0  0
    0.3230  -46.2650    6.6610 C   0  0  0  0  0  0  0  0  0  0  0  0
   -1.0100  -46.3230    7.4060 C   0  0  0  0  0  0  0  0  0  0  0  0
   -1.9770  -45.7490    6.4520 O   0  0  0  0  0  0  0  0  0  0  0  0
   -3.2330  -45.4540    6.8960 C   0  0  0  0  0  0  0  0  0  0  0  0
   -3.7870  -45.8790    8.1150 C   0  0  0  0  0  0  0  0  0  0  0  0
   -5.0910  -45.4870    8.4300 C   0  0  0  0  0  0  0  0  0  0  0  0
   -5.8330  -44.6890    7.5560 C   0  0  0  0  0  0  0  0  0  0  0  0
   -5.2710  -44.2840    6.3350 C   0  0  0  0  0  0  0  0  0  0  0  0
   -3.9780  -44.6600    5.9910 C   0  0  0  0  0  0  0  0  0  0  0  0
   -0.9970  -52.7860    7.1340 H   0  0  0  0  0  0  0  0  0  0  0  0
   -3.3870  -52.3210    6.6120 H   0  0  0  0  0  0  0  0  0  0  0  0
   -4.0920  -50.1400    5.7170 H   0  0  0  0  0  0  0  0  0  0  0  0
   -2.4630  -48.3150    5.3210 H   0  0  0  0  0  0  0  0  0  0  0  0
   -0.4400  -47.0980    4.8140 H   0  0  0  0  0  0  0  0  0  0  0  0
    1.3700  -47.0320    4.9300 H   0  0  0  0  0  0  0  0  0  0  0  0
    0.4410  -45.2310    6.2590 H   0  0  0  0  0  0  0  0  0  0  0  0
    1.1330  -46.4710    7.4010 H   0  0  0  0  0  0  0  0  0  0  0  0
   -1.0040  -45.6680    8.3040 H   0  0  0  0  0  0  0  0  0  0  0  0
   -1.3480  -47.3580    7.6220 H   0  0  0  0  0  0  0  0  0  0  0  0
   -3.2440  -46.5140    8.8100 H   0  0  0  0  0  0  0  0  0  0  0  0
   -3.5440  -44.3560    5.0430 H   0  0  0  0  0  0  0  0  0  0  0  0
    1.0150  -50.7430    6.7260 N   0  0  0  0  0  0  0  0  0  0  0  0
    1.5540  -51.5330    7.0610 H   0  0  0  0  0  0  0  0  0  0  0  0
   -5.8600  -43.6700    5.6510 H   0  0  0  0  0  0  0  0  0  0  0  0
   -6.8470  -44.3900    7.8130 H   0  0  0  0  0  0  0  0  0  0  0  0
   -5.5410  -45.8120    9.3710 H   0  0  0  0  0  0  0  0  0  0  0  0
  1  2  2  0  0  0  0
  2  3  1  0  0  0  0
  2  4  1  0  0  0  0
  4 11  2  0  0  0  0
  4 34  1  0  0  0  0
  5  6  2  0  0  0  0
  5 10  1  0  0  0  0
  5 34  1  0  0  0  0
  6  7  1  0  0  0  0
  6 22  1  0  0  0  0
  7  8  2  0  0  0  0
  7 23  1  0  0  0  0
  8  9  1  0  0  0  0
  8 24  1  0  0  0  0
  9 10  2  0  0  0  0
  9 25  1  0  0  0  0
 10 11  1  0  0  0  0
 11 12  1  0  0  0  0
 12 26  1  0  0  0  0
 12 27  1  0  0  0  0
 12 13  1  0  0  0  0
 13 14  1  0  0  0  0
 13 28  1  0  0  0  0
 13 29  1  0  0  0  0
 14 15  1  0  0  0  0
 14 30  1  0  0  0  0
 14 31  1  0  0  0  0
 15 16  1  0  0  0  0
 16 17  2  0  0  0  0
 16 21  1  0  0  0  0
 17 18  1  0  0  0  0
 17 32  1  0  0  0  0
 18 19  2  0  0  0  0
 18 38  1  0  0  0  0
 19 20  1  0  0  0  0
 19 37  1  0  0  0  0
 20 21  2  0  0  0  0
 20 36  1  0  0  0  0
 21 33  1  0  0  0  0
 34 35  1  0  0  0  0
M  CHG  1   3  -1
M  END
$$$$
