p38a_2m
 OpenBabel02232411163D
Structure written by MMmdl.
 50 54  0  0  0  0  0  0  0  0999 V2000
   36.3790   36.0500   15.8000 C   0  0  0  0  0  0  0  0  0  0  0  0
   34.5180   35.0150   21.3260 C   0  0  0  0  0  0  0  0  0  0  0  0
   35.6940   35.5800   16.9160 C   0  0  0  0  0  0  0  0  0  0  0  0
   34.0660   39.0950   23.8960 C   0  0  0  0  0  0  0  0  0  0  0  0
   34.7390   37.8840   21.5110 C   0  0  0  0  0  0  0  0  0  0  0  0
   35.1800   37.2190   20.3140 C   0  0  0  0  0  0  0  0  0  0  0  0
   37.6710   36.5440   16.0230 C   0  0  0  0  0  0  0  0  0  0  0  0
   38.2890   36.5460   17.2770 C   0  0  0  0  0  0  0  0  0  0  0  0
   37.5650   36.1040   18.3900 C   0  0  0  0  0  0  0  0  0  0  0  0
   34.2950   37.1220   22.6330 C   0  0  0  0  0  0  0  0  0  0  0  0
   34.7480   39.2960   21.6600 C   0  0  0  0  0  0  0  0  0  0  0  0
   35.1070   35.8700   20.2580 C   0  0  0  0  0  0  0  0  0  0  0  0
   36.2660   35.6240   18.2050 C   0  0  0  0  0  0  0  0  0  0  0  0
   34.4780   35.0640   16.7920 F   0  0  0  0  0  0  0  0  0  0  0  0
   35.5030   35.0300   19.2180 O   0  0  0  0  0  0  0  0  0  0  0  0
   34.4210   39.9150   22.8050 N   0  0  0  0  0  0  0  0  0  0  0  0
   34.3340   33.8230   21.2350 O   0  0  0  0  0  0  0  0  0  0  0  0
   34.1570   35.7240   22.5290 N   0  0  0  0  0  0  0  0  0  0  0  0
   33.9930   37.7170   23.8300 N   0  0  0  0  0  0  0  0  0  0  0  0
   33.7090   39.7220   25.0690 N   0  0  0  0  0  0  0  0  0  0  0  0
   35.9260   36.0570   14.8060 H   0  0  0  0  0  0  0  0  0  0  0  0
   35.5760   37.8320   19.5010 H   0  0  0  0  0  0  0  0  0  0  0  0
   39.3110   36.9160   17.3950 H   0  0  0  0  0  0  0  0  0  0  0  0
   38.0120   36.1590   19.3850 H   0  0  0  0  0  0  0  0  0  0  0  0
   35.0310   39.9340   20.8070 H   0  0  0  0  0  0  0  0  0  0  0  0
   33.8440   40.7480   25.1600 H   0  0  0  0  0  0  0  0  0  0  0  0
   38.3240   37.0700   14.9900 F   0  0  0  0  0  0  0  0  0  0  0  0
   32.4150   39.0870   28.6070 C   0  0  0  0  0  0  0  0  0  0  0  0
   32.5210   39.7480   27.2260 C   0  0  0  0  0  0  0  0  0  0  0  0
   33.5350   38.9770   26.3530 C   0  0  0  0  0  0  0  0  0  0  0  0
   34.8880   38.8450   27.0890 C   0  0  0  0  0  0  0  0  0  0  0  0
   34.6690   38.2320   28.4770 C   0  0  0  0  0  0  0  0  0  0  0  0
   33.7060   38.9870   29.2490 O   0  0  0  0  0  0  0  0  0  0  0  0
   31.9680   38.0690   28.5280 H   0  0  0  0  0  0  0  0  0  0  0  0
   31.8470   39.7300   29.3170 H   0  0  0  0  0  0  0  0  0  0  0  0
   32.8480   40.8080   27.3470 H   0  0  0  0  0  0  0  0  0  0  0  0
   31.5220   39.7430   26.7310 H   0  0  0  0  0  0  0  0  0  0  0  0
   33.1260   37.9520   26.1290 H   0  0  0  0  0  0  0  0  0  0  0  0
   35.5730   38.1850   26.5040 H   0  0  0  0  0  0  0  0  0  0  0  0
   35.3660   39.8480   27.1890 H   0  0  0  0  0  0  0  0  0  0  0  0
   34.3180   37.1770   28.3960 H   0  0  0  0  0  0  0  0  0  0  0  0
   35.5870   38.3110   29.1040 H   0  0  0  0  0  0  0  0  0  0  0  0
   33.6730   34.9640   23.7020 C   0  0  0  0  0  0  0  0  0  0  0  0
   32.5280   33.9690   23.5520 C   0  0  0  0  0  0  0  0  0  0  0  0
   32.3020   35.2670   24.2990 C   0  0  0  0  0  0  0  0  0  0  0  0
   34.5040   34.7310   24.3960 H   0  0  0  0  0  0  0  0  0  0  0  0
   32.0290   33.8260   22.5860 H   0  0  0  0  0  0  0  0  0  0  0  0
   32.5960   33.0320   24.1280 H   0  0  0  0  0  0  0  0  0  0  0  0
   31.6580   36.0380   23.8570 H   0  0  0  0  0  0  0  0  0  0  0  0
   32.2150   35.2530   25.3970 H   0  0  0  0  0  0  0  0  0  0  0  0
  1  3  2  0  0  0  0
  1  7  1  0  0  0  0
  1 21  1  0  0  0  0
  2 12  1  0  0  0  0
  2 17  2  0  0  0  0
  2 18  1  0  0  0  0
  3 13  1  0  0  0  0
  3 14  1  0  0  0  0
  4 16  2  0  0  0  0
  4 19  1  0  0  0  0
  4 20  1  0  0  0  0
  5  6  1  0  0  0  0
  5 10  1  0  0  0  0
  5 11  2  0  0  0  0
  6 12  2  0  0  0  0
  6 22  1  0  0  0  0
  7  8  2  0  0  0  0
  7 27  1  0  0  0  0
  8  9  1  0  0  0  0
  8 23  1  0  0  0  0
  9 13  2  0  0  0  0
  9 24  1  0  0  0  0
 10 18  1  0  0  0  0
 10 19  2  0  0  0  0
 11 16  1  0  0  0  0
 11 25  1  0  0  0  0
 12 15  1  0  0  0  0
 13 15  1  0  0  0  0
 18 43  1  0  0  0  0
 20 26  1  0  0  0  0
 20 30  1  0  0  0  0
 28 29  1  0  0  0  0
 28 33  1  0  0  0  0
 28 34  1  0  0  0  0
 28 35  1  0  0  0  0
 29 30  1  0  0  0  0
 29 36  1  0  0  0  0
 29 37  1  0  0  0  0
 30 31  1  0  0  0  0
 30 38  1  0  0  0  0
 31 32  1  0  0  0  0
 31 39  1  0  0  0  0
 31 40  1  0  0  0  0
 32 33  1  0  0  0  0
 32 41  1  0  0  0  0
 32 42  1  0  0  0  0
 43 44  1  0  0  0  0
 43 45  1  0  0  0  0
 43 46  1  0  0  0  0
 44 45  1  0  0  0  0
 44 47  1  0  0  0  0
 44 48  1  0  0  0  0
 45 49  1  0  0  0  0
 45 50  1  0  0  0  0
M  END
$$$$
