p38a_3flw
 OpenBabel02232411163D
Structure written by MMmdl.
 49 51  0  0  0  0  0  0  0  0999 V2000
   38.2250   36.4960   17.2520 C   0  0  0  0  0  0  0  0  0  0  0  0
   37.5890   36.6500   16.0120 C   0  0  0  0  0  0  0  0  0  0  0  0
   34.2090   39.9280   27.6490 C   0  0  0  0  0  0  0  0  0  0  0  0
   35.7420   39.9010   27.6330 C   0  0  0  0  0  0  0  0  0  0  0  0
   32.0360   39.4750   26.4710 C   0  0  0  0  0  0  0  0  0  0  0  0
   33.9540   35.0990   23.8260 C   0  0  0  0  0  0  0  0  0  0  0  0
   37.9530   35.9330   19.5190 F   0  0  0  0  0  0  0  0  0  0  0  0
   37.4250   36.0750   18.3100 C   0  0  0  0  0  0  0  0  0  0  0  0
   38.3060   37.1160   14.9920 F   0  0  0  0  0  0  0  0  0  0  0  0
   36.2350   36.3770   15.8030 C   0  0  0  0  0  0  0  0  0  0  0  0
   35.4540   35.9500   16.8820 C   0  0  0  0  0  0  0  0  0  0  0  0
   36.0530   35.7930   18.1360 C   0  0  0  0  0  0  0  0  0  0  0  0
   35.3030   35.2070   19.1630 O   0  0  0  0  0  0  0  0  0  0  0  0
   34.9950   36.0300   20.2460 C   0  0  0  0  0  0  0  0  0  0  0  0
   35.0380   37.3810   20.2910 C   0  0  0  0  0  0  0  0  0  0  0  0
   34.7120   38.0400   21.5270 C   0  0  0  0  0  0  0  0  0  0  0  0
   34.6960   39.4530   21.6660 C   0  0  0  0  0  0  0  0  0  0  0  0
   34.4580   40.0670   22.8340 N   0  0  0  0  0  0  0  0  0  0  0  0
   34.5490   35.1710   21.3750 C   0  0  0  0  0  0  0  0  0  0  0  0
   34.3750   33.9730   21.3220 O   0  0  0  0  0  0  0  0  0  0  0  0
   34.3160   35.8760   22.6080 N   0  0  0  0  0  0  0  0  0  0  0  0
   34.3960   37.2760   22.6900 C   0  0  0  0  0  0  0  0  0  0  0  0
   34.1580   37.8750   23.9040 N   0  0  0  0  0  0  0  0  0  0  0  0
   34.2230   39.2500   23.9590 C   0  0  0  0  0  0  0  0  0  0  0  0
   34.1510   39.8930   25.1840 N   0  0  0  0  0  0  0  0  0  0  0  0
   33.5680   39.2620   26.4060 C   0  0  0  0  0  0  0  0  0  0  0  0
   31.2260   38.4880   25.6220 C   0  0  0  0  0  0  0  0  0  0  0  0
   30.5920   39.1420   24.5130 O   0  0  0  0  0  0  0  0  0  0  0  0
   36.2720   40.0170   28.9660 O   0  0  0  0  0  0  0  0  0  0  0  0
   39.2860   36.7300   17.3850 H   0  0  0  0  0  0  0  0  0  0  0  0
   33.8420   39.3780   28.5520 H   0  0  0  0  0  0  0  0  0  0  0  0
   33.8570   40.9860   27.7270 H   0  0  0  0  0  0  0  0  0  0  0  0
   36.1340   38.9150   27.2980 H   0  0  0  0  0  0  0  0  0  0  0  0
   36.1370   40.7430   27.0220 H   0  0  0  0  0  0  0  0  0  0  0  0
   31.7180   39.3700   27.5390 H   0  0  0  0  0  0  0  0  0  0  0  0
   31.8020   40.5180   26.1460 H   0  0  0  0  0  0  0  0  0  0  0  0
   34.6210   35.3880   24.6840 H   0  0  0  0  0  0  0  0  0  0  0  0
   32.8910   35.3140   24.1180 H   0  0  0  0  0  0  0  0  0  0  0  0
   34.0670   34.0000   23.6340 H   0  0  0  0  0  0  0  0  0  0  0  0
   35.7760   36.5070   14.8200 H   0  0  0  0  0  0  0  0  0  0  0  0
   34.3860   35.7560   16.7380 H   0  0  0  0  0  0  0  0  0  0  0  0
   35.3220   37.9960   19.4340 H   0  0  0  0  0  0  0  0  0  0  0  0
   34.8730   40.0930   20.7850 H   0  0  0  0  0  0  0  0  0  0  0  0
   34.0440   40.9310   25.1820 H   0  0  0  0  0  0  0  0  0  0  0  0
   33.8050   38.1630   26.4130 H   0  0  0  0  0  0  0  0  0  0  0  0
   31.8670   37.7240   25.1230 H   0  0  0  0  0  0  0  0  0  0  0  0
   30.4420   38.0040   26.2470 H   0  0  0  0  0  0  0  0  0  0  0  0
   30.0160   39.8810   24.8580 H   0  0  0  0  0  0  0  0  0  0  0  0
   35.9170   40.8370   29.3930 H   0  0  0  0  0  0  0  0  0  0  0  0
  1  2  2  0  0  0  0
  1  8  1  0  0  0  0
  1 30  1  0  0  0  0
  2  9  1  0  0  0  0
  2 10  1  0  0  0  0
  3  4  1  0  0  0  0
  3 26  1  0  0  0  0
  3 31  1  0  0  0  0
  3 32  1  0  0  0  0
  4 29  1  0  0  0  0
  4 33  1  0  0  0  0
  4 34  1  0  0  0  0
  5 26  1  0  0  0  0
  5 27  1  0  0  0  0
  5 35  1  0  0  0  0
  5 36  1  0  0  0  0
  6 21  1  0  0  0  0
  6 37  1  0  0  0  0
  6 38  1  0  0  0  0
  6 39  1  0  0  0  0
  7  8  1  0  0  0  0
  8 12  2  0  0  0  0
 10 11  2  0  0  0  0
 10 40  1  0  0  0  0
 11 12  1  0  0  0  0
 11 41  1  0  0  0  0
 12 13  1  0  0  0  0
 13 14  1  0  0  0  0
 14 15  2  0  0  0  0
 14 19  1  0  0  0  0
 15 16  1  0  0  0  0
 15 42  1  0  0  0  0
 16 17  2  0  0  0  0
 16 22  1  0  0  0  0
 17 18  1  0  0  0  0
 17 43  1  0  0  0  0
 18 24  2  0  0  0  0
 19 20  2  0  0  0  0
 19 21  1  0  0  0  0
 21 22  1  0  0  0  0
 22 23  2  0  0  0  0
 23 24  1  0  0  0  0
 24 25  1  0  0  0  0
 25 26  1  0  0  0  0
 25 44  1  0  0  0  0
 26 45  1  0  0  0  0
 27 28  1  0  0  0  0
 27 46  1  0  0  0  0
 27 47  1  0  0  0  0
 28 48  1  0  0  0  0
 29 49  1  0  0  0  0
M  END
$$$$
