p38a_2u
 OpenBabel02232411163D
Structure written by MMmdl.
 64 68  0  0  0  0  0  0  0  0999 V2000
   38.2980   36.5370   17.1790 C   0  0  0  0  0  0  0  0  0  0  0  0
   34.6130   35.1060   21.3240 C   0  0  0  0  0  0  0  0  0  0  0  0
   37.5380   36.0890   18.2560 C   0  0  0  0  0  0  0  0  0  0  0  0
   34.0620   39.2400   23.7800 C   0  0  0  0  0  0  0  0  0  0  0  0
   34.6770   37.9840   21.4060 C   0  0  0  0  0  0  0  0  0  0  0  0
   35.0770   37.3080   20.2030 C   0  0  0  0  0  0  0  0  0  0  0  0
   37.6310   36.6570   15.9520 C   0  0  0  0  0  0  0  0  0  0  0  0
   36.2870   36.3250   15.7710 C   0  0  0  0  0  0  0  0  0  0  0  0
   35.5480   35.8650   16.8670 C   0  0  0  0  0  0  0  0  0  0  0  0
   34.3360   37.2330   22.5690 C   0  0  0  0  0  0  0  0  0  0  0  0
   34.6280   39.4010   21.5120 C   0  0  0  0  0  0  0  0  0  0  0  0
   35.0850   35.9560   20.1940 C   0  0  0  0  0  0  0  0  0  0  0  0
   36.1800   35.7380   18.1070 C   0  0  0  0  0  0  0  0  0  0  0  0
   38.0920   35.9880   19.4570 F   0  0  0  0  0  0  0  0  0  0  0  0
   35.4870   35.1190   19.1550 O   0  0  0  0  0  0  0  0  0  0  0  0
   34.3330   40.0410   22.6530 N   0  0  0  0  0  0  0  0  0  0  0  0
   34.5090   33.9010   21.2680 O   0  0  0  0  0  0  0  0  0  0  0  0
   34.2760   35.8230   22.5250 N   0  0  0  0  0  0  0  0  0  0  0  0
   34.0590   37.8590   23.7580 N   0  0  0  0  0  0  0  0  0  0  0  0
   33.7170   39.8820   24.9480 N   0  0  0  0  0  0  0  0  0  0  0  0
   39.3490   36.8180   17.2930 H   0  0  0  0  0  0  0  0  0  0  0  0
   35.3750   37.9110   19.3430 H   0  0  0  0  0  0  0  0  0  0  0  0
   35.8010   36.4350   14.7990 H   0  0  0  0  0  0  0  0  0  0  0  0
   34.4860   35.6250   16.7480 H   0  0  0  0  0  0  0  0  0  0  0  0
   34.8360   40.0230   20.6250 H   0  0  0  0  0  0  0  0  0  0  0  0
   33.8160   40.9140   25.0110 H   0  0  0  0  0  0  0  0  0  0  0  0
   38.3060   37.1520   14.9170 F   0  0  0  0  0  0  0  0  0  0  0  0
   32.5610   39.2430   28.5330 C   0  0  0  0  0  0  0  0  0  0  0  0
   32.5600   39.8470   27.1230 C   0  0  0  0  0  0  0  0  0  0  0  0
   33.6480   39.1700   26.2610 C   0  0  0  0  0  0  0  0  0  0  0  0
   35.0180   39.2350   26.9720 C   0  0  0  0  0  0  0  0  0  0  0  0
   34.9000   38.6640   28.3900 C   0  0  0  0  0  0  0  0  0  0  0  0
   33.8660   39.3310   29.1490 O   0  0  0  0  0  0  0  0  0  0  0  0
   32.2410   38.1760   28.5080 H   0  0  0  0  0  0  0  0  0  0  0  0
   31.9300   39.8450   29.2260 H   0  0  0  0  0  0  0  0  0  0  0  0
   32.7530   40.9430   27.1880 H   0  0  0  0  0  0  0  0  0  0  0  0
   31.5600   39.6940   26.6500 H   0  0  0  0  0  0  0  0  0  0  0  0
   33.3620   38.0960   26.0840 H   0  0  0  0  0  0  0  0  0  0  0  0
   35.7680   38.6410   26.3980 H   0  0  0  0  0  0  0  0  0  0  0  0
   35.3660   40.2950   27.0190 H   0  0  0  0  0  0  0  0  0  0  0  0
   34.6780   37.5710   28.3600 H   0  0  0  0  0  0  0  0  0  0  0  0
   35.8130   38.8820   28.9890 H   0  0  0  0  0  0  0  0  0  0  0  0
   34.4880   33.5820   25.6630 C   0  0  0  0  0  0  0  0  0  0  0  0
   34.9840   34.2340   24.3540 C   0  0  0  0  0  0  0  0  0  0  0  0
   33.8300   35.0660   23.7580 C   0  0  0  0  0  0  0  0  0  0  0  0
   32.6350   34.1440   23.4520 C   0  0  0  0  0  0  0  0  0  0  0  0
   32.1730   33.4600   24.7570 C   0  0  0  0  0  0  0  0  0  0  0  0
   34.2380   34.3950   26.4000 H   0  0  0  0  0  0  0  0  0  0  0  0
   35.3100   32.9420   26.0700 H   0  0  0  0  0  0  0  0  0  0  0  0
   35.2900   33.4370   23.6360 H   0  0  0  0  0  0  0  0  0  0  0  0
   35.8500   34.8940   24.5850 H   0  0  0  0  0  0  0  0  0  0  0  0
   33.4950   35.8230   24.5270 H   0  0  0  0  0  0  0  0  0  0  0  0
   31.7800   34.7300   23.0420 H   0  0  0  0  0  0  0  0  0  0  0  0
   32.9210   33.3530   22.7180 H   0  0  0  0  0  0  0  0  0  0  0  0
   31.7480   34.2400   25.4460 H   0  0  0  0  0  0  0  0  0  0  0  0
   31.3640   32.7330   24.4840 H   0  0  0  0  0  0  0  0  0  0  0  0
   33.2980   32.7120   25.4020 N   0  0  0  0  0  0  0  0  0  0  0  0
   32.8540   31.5990   26.6460 S   0  0  0  0  0  0  0  0  0  0  0  0
   32.1700   32.2740   27.7640 O   0  0  0  0  0  0  0  0  0  0  0  0
   34.1100   30.9500   27.0580 O   0  0  0  0  0  0  0  0  0  0  0  0
   31.7970   30.4730   25.8750 C   0  0  0  0  0  0  0  0  0  0  0  0
   32.1640   30.1760   24.8540 H   0  0  0  0  0  0  0  0  0  0  0  0
   31.6950   29.5190   26.4590 H   0  0  0  0  0  0  0  0  0  0  0  0
   30.7530   30.8610   25.7340 H   0  0  0  0  0  0  0  0  0  0  0  0
  1  3  2  0  0  0  0
  1  7  1  0  0  0  0
  1 21  1  0  0  0  0
  2 12  1  0  0  0  0
  2 17  2  0  0  0  0
  2 18  1  0  0  0  0
  3 13  1  0  0  0  0
  3 14  1  0  0  0  0
  4 16  2  0  0  0  0
  4 19  1  0  0  0  0
  4 20  1  0  0  0  0
  5  6  1  0  0  0  0
  5 10  1  0  0  0  0
  5 11  2  0  0  0  0
  6 12  2  0  0  0  0
  6 22  1  0  0  0  0
  7  8  2  0  0  0  0
  7 27  1  0  0  0  0
  8  9  1  0  0  0  0
  8 23  1  0  0  0  0
  9 13  2  0  0  0  0
  9 24  1  0  0  0  0
 10 18  1  0  0  0  0
 10 19  2  0  0  0  0
 11 16  1  0  0  0  0
 11 25  1  0  0  0  0
 12 15  1  0  0  0  0
 13 15  1  0  0  0  0
 18 45  1  0  0  0  0
 20 26  1  0  0  0  0
 20 30  1  0  0  0  0
 28 29  1  0  0  0  0
 28 33  1  0  0  0  0
 28 34  1  0  0  0  0
 28 35  1  0  0  0  0
 29 30  1  0  0  0  0
 29 36  1  0  0  0  0
 29 37  1  0  0  0  0
 30 31  1  0  0  0  0
 30 38  1  0  0  0  0
 31 32  1  0  0  0  0
 31 39  1  0  0  0  0
 31 40  1  0  0  0  0
 32 33  1  0  0  0  0
 32 41  1  0  0  0  0
 32 42  1  0  0  0  0
 43 44  1  0  0  0  0
 43 48  1  0  0  0  0
 43 49  1  0  0  0  0
 43 57  1  0  0  0  0
 44 45  1  0  0  0  0
 44 50  1  0  0  0  0
 44 51  1  0  0  0  0
 45 46  1  0  0  0  0
 45 52  1  0  0  0  0
 46 47  1  0  0  0  0
 46 53  1  0  0  0  0
 46 54  1  0  0  0  0
 47 55  1  0  0  0  0
 47 56  1  0  0  0  0
 47 57  1  0  0  0  0
 57 58  1  0  0  0  0
 58 59  2  0  0  0  0
 58 60  2  0  0  0  0
 58 61  1  0  0  0  0
 61 62  1  0  0  0  0
 61 63  1  0  0  0  0
 61 64  1  0  0  0  0
M  END
$$$$
