18625-1
 OpenBabel02232411163D
Structure written by MMmdl.
 38 39  0  0  0  0  0  0  0  0999 V2000
   23.7250   12.8610   30.3970 C   0  0  0  0  0  0  0  0  0  0  0  0
   23.3050   11.4040   30.4420 C   0  0  0  0  0  0  0  0  0  0  0  0
   22.0730   11.4380   31.2710 O   0  0  0  0  0  0  0  0  0  0  0  0
   21.4830   10.2700   31.5990 C   0  0  0  0  0  0  0  0  0  0  0  0
   21.9990    9.1050   31.1420 N   0  0  0  0  0  0  0  0  0  0  0  0
   21.3120    7.9360   31.4430 C   0  0  0  0  0  0  0  0  0  0  0  0
   20.1610    7.9200   32.2220 C   0  0  0  0  0  0  0  0  0  0  0  0
   19.6340    9.1480   32.7100 C   0  0  0  0  0  0  0  0  0  0  0  0
   18.4920    9.1490   33.4680 N   0  0  0  0  0  0  0  0  0  0  0  0
   20.2950   10.3750   32.3830 C   0  0  0  0  0  0  0  0  0  0  0  0
   19.8290   11.6570   32.7400 C   0  0  0  0  0  0  0  0  0  0  0  0
   19.4960   12.7420   32.9830 N   0  0  0  0  0  0  0  0  0  0  0  0
   21.9280    6.8120   30.8440 N   0  0  0  0  0  0  0  0  0  0  0  0
   21.4400    5.4810   30.7550 C   0  0  0  0  0  0  0  0  0  0  0  0
   20.4190    5.1040   31.2860 O   0  0  0  0  0  0  0  0  0  0  0  0
   22.3440    4.6060   29.8930 C   0  0  0  0  0  0  0  0  0  0  0  0
   23.5660    4.1740   30.6530 C   0  0  0  0  0  0  0  0  0  0  0  0
   23.5160    3.0930   31.5500 C   0  0  0  0  0  0  0  0  0  0  0  0
   22.0440    2.2310   31.7300 Cl  0  0  0  0  0  0  0  0  0  0  0  0
   24.6340    2.6810   32.2780 C   0  0  0  0  0  0  0  0  0  0  0  0
   25.8440    3.3550   32.0970 C   0  0  0  0  0  0  0  0  0  0  0  0
   25.9220    4.4250   31.2000 C   0  0  0  0  0  0  0  0  0  0  0  0
   24.7920    4.8350   30.4860 C   0  0  0  0  0  0  0  0  0  0  0  0
   24.6140   12.9560   29.7230 H   0  0  0  0  0  0  0  0  0  0  0  0
   22.9080   13.5000   29.9880 H   0  0  0  0  0  0  0  0  0  0  0  0
   24.0040   13.2350   31.4080 H   0  0  0  0  0  0  0  0  0  0  0  0
   23.0210   11.0100   29.4410 H   0  0  0  0  0  0  0  0  0  0  0  0
   24.0540   10.7570   30.9510 H   0  0  0  0  0  0  0  0  0  0  0  0
   19.6470    6.9860   32.4550 H   0  0  0  0  0  0  0  0  0  0  0  0
   18.0680   10.0200   33.7890 H   0  0  0  0  0  0  0  0  0  0  0  0
   18.0160    8.2630   33.7270 H   0  0  0  0  0  0  0  0  0  0  0  0
   22.8280    7.0250   30.3640 H   0  0  0  0  0  0  0  0  0  0  0  0
   21.7540    3.7120   29.5540 H   0  0  0  0  0  0  0  0  0  0  0  0
   22.6530    5.1650   28.9680 H   0  0  0  0  0  0  0  0  0  0  0  0
   24.5730    1.8370   32.9740 H   0  0  0  0  0  0  0  0  0  0  0  0
   26.7340    3.0420   32.6530 H   0  0  0  0  0  0  0  0  0  0  0  0
   26.8740    4.9420   31.0510 H   0  0  0  0  0  0  0  0  0  0  0  0
   24.8840    5.6740   29.7890 H   0  0  0  0  0  0  0  0  0  0  0  0
  1  2  1  0  0  0  0
  1 24  1  0  0  0  0
  1 25  1  0  0  0  0
  1 26  1  0  0  0  0
  2  3  1  0  0  0  0
  2 27  1  0  0  0  0
  2 28  1  0  0  0  0
  3  4  1  0  0  0  0
  4 10  2  0  0  0  0
  4  5  1  0  0  0  0
  5  6  2  0  0  0  0
  6  7  1  0  0  0  0
  6 13  1  0  0  0  0
  7  8  2  0  0  0  0
  7 29  1  0  0  0  0
  8  9  1  0  0  0  0
  8 10  1  0  0  0  0
  9 30  1  0  0  0  0
  9 31  1  0  0  0  0
 10 11  1  0  0  0  0
 11 12  3  0  0  0  0
 13 14  1  0  0  0  0
 13 32  1  0  0  0  0
 14 15  2  0  0  0  0
 14 16  1  0  0  0  0
 16 17  1  0  0  0  0
 16 33  1  0  0  0  0
 16 34  1  0  0  0  0
 17 23  2  0  0  0  0
 17 18  1  0  0  0  0
 18 19  1  0  0  0  0
 18 20  2  0  0  0  0
 20 21  1  0  0  0  0
 20 35  1  0  0  0  0
 21 22  2  0  0  0  0
 21 36  1  0  0  0  0
 22 23  1  0  0  0  0
 22 37  1  0  0  0  0
 23 38  1  0  0  0  0
M  END
$$$$
