p38a_3fmk
 OpenBabel02232411163D
Structure written by MMmdl.
 46 49  0  0  1  0  0  0  0  0999 V2000
   37.5060   36.0800   18.2700 C   0  0  0  0  0  0  0  0  0  0  0  0
   38.2760   36.5230   17.1980 C   0  0  0  0  0  0  0  0  0  0  0  0
   33.3940   35.1340   23.5700 C   0  0  0  0  0  0  0  0  0  0  0  0
   36.2630   36.3620   15.7850 C   0  0  0  0  0  0  0  0  0  0  0  0
   34.6330   39.4290   21.5300 C   0  0  0  0  0  0  0  0  0  0  0  0
   32.5100   39.4090   25.9230 C   0  0  1  0  0  0  0  0  0  0  0  0
   33.2300   38.3270   26.7780 C   0  0  0  0  0  0  0  0  0  0  0  0
   33.7460   39.2680   23.6970 C   0  0  0  0  0  0  0  0  0  0  0  0
   34.4340   35.1400   21.2680 C   0  0  0  0  0  0  0  0  0  0  0  0
   35.0080   35.9820   20.1830 C   0  0  0  0  0  0  0  0  0  0  0  0
   35.0610   37.3330   20.2170 C   0  0  0  0  0  0  0  0  0  0  0  0
   36.1410   35.7560   18.1150 C   0  0  0  0  0  0  0  0  0  0  0  0
   35.5130   35.9070   16.8760 C   0  0  0  0  0  0  0  0  0  0  0  0
   34.5950   38.0150   21.3930 C   0  0  0  0  0  0  0  0  0  0  0  0
   34.0760   37.2750   22.4950 C   0  0  0  0  0  0  0  0  0  0  0  0
   33.3880   39.9430   24.8470 N   0  0  0  0  0  0  0  0  0  0  0  0
   37.6140   36.6660   15.9710 C   0  0  0  0  0  0  0  0  0  0  0  0
   38.3000   37.1530   14.9400 F   0  0  0  0  0  0  0  0  0  0  0  0
   38.0520   35.9580   19.4720 F   0  0  0  0  0  0  0  0  0  0  0  0
   35.4410   35.1390   19.1620 O   0  0  0  0  0  0  0  0  0  0  0  0
   34.3270   33.9330   21.2390 O   0  0  0  0  0  0  0  0  0  0  0  0
   33.9870   35.8740   22.4210 N   0  0  0  0  0  0  0  0  0  0  0  0
   33.6540   37.8950   23.6470 N   0  0  0  0  0  0  0  0  0  0  0  0
   34.2390   40.0650   22.6430 N   0  0  0  0  0  0  0  0  0  0  0  0
   31.1880   38.8490   25.3910 C   0  0  0  0  0  0  0  0  0  0  0  0
   34.2830   38.9230   27.6290 N   0  0  0  0  0  0  0  0  0  0  0  0
   34.0230   39.4330   28.8690 N   0  0  0  0  0  0  0  0  0  0  0  0
   35.2190   39.9380   29.2830 C   0  0  0  0  0  0  0  0  0  0  0  0
   36.1870   39.7200   28.2660 N   0  0  0  0  0  0  0  0  0  0  0  0
   35.5970   39.1130   27.2850 N   0  0  0  0  0  0  0  0  0  0  0  0
   39.3320   36.7840   17.3160 H   0  0  0  0  0  0  0  0  0  0  0  0
   34.0100   35.2990   24.4950 H   0  0  0  0  0  0  0  0  0  0  0  0
   32.3520   35.5080   23.7680 H   0  0  0  0  0  0  0  0  0  0  0  0
   33.3490   34.0370   23.3470 H   0  0  0  0  0  0  0  0  0  0  0  0
   35.7810   36.4900   14.8130 H   0  0  0  0  0  0  0  0  0  0  0  0
   34.9850   40.0480   20.6900 H   0  0  0  0  0  0  0  0  0  0  0  0
   32.2790   40.2970   26.5860 H   0  0  0  0  0  0  0  0  0  0  0  0
   32.4650   37.8260   27.4430 H   0  0  0  0  0  0  0  0  0  0  0  0
   33.6860   37.5340   26.1170 H   0  0  0  0  0  0  0  0  0  0  0  0
   35.4500   37.9340   19.3910 H   0  0  0  0  0  0  0  0  0  0  0  0
   34.4470   35.6890   16.7510 H   0  0  0  0  0  0  0  0  0  0  0  0
   33.4820   40.9780   24.8640 H   0  0  0  0  0  0  0  0  0  0  0  0
   30.6880   39.5930   24.7320 H   0  0  0  0  0  0  0  0  0  0  0  0
   31.3400   37.9020   24.8230 H   0  0  0  0  0  0  0  0  0  0  0  0
   30.5080   38.6300   26.2490 H   0  0  0  0  0  0  0  0  0  0  0  0
   35.4180   40.4300   30.2340 H   0  0  0  0  0  0  0  0  0  0  0  0
  1  2  2  0  0  0  0
  1 12  1  0  0  0  0
  1 19  1  0  0  0  0
  2 17  1  0  0  0  0
  2 31  1  0  0  0  0
  3 22  1  0  0  0  0
  3 32  1  0  0  0  0
  3 33  1  0  0  0  0
  3 34  1  0  0  0  0
  4 13  1  0  0  0  0
  4 17  2  0  0  0  0
  4 35  1  0  0  0  0
  5 14  2  0  0  0  0
  5 24  1  0  0  0  0
  5 36  1  0  0  0  0
  6  7  1  0  0  0  0
  6 16  1  0  0  0  0
  6 25  1  0  0  0  0
  6 37  1  6  0  0  0
  7 26  1  0  0  0  0
  7 38  1  0  0  0  0
  7 39  1  0  0  0  0
  8 16  1  0  0  0  0
  8 23  1  0  0  0  0
  8 24  2  0  0  0  0
  9 10  1  0  0  0  0
  9 21  2  0  0  0  0
  9 22  1  0  0  0  0
 10 11  2  0  0  0  0
 10 20  1  0  0  0  0
 11 14  1  0  0  0  0
 11 40  1  0  0  0  0
 12 13  2  0  0  0  0
 12 20  1  0  0  0  0
 13 41  1  0  0  0  0
 14 15  1  0  0  0  0
 15 22  1  0  0  0  0
 15 23  2  0  0  0  0
 16 42  1  0  0  0  0
 17 18  1  0  0  0  0
 25 43  1  0  0  0  0
 25 44  1  0  0  0  0
 25 45  1  0  0  0  0
 26 27  1  0  0  0  0
 26 30  1  0  0  0  0
 27 28  2  0  0  0  0
 28 29  1  0  0  0  0
 28 46  1  0  0  0  0
 29 30  2  0  0  0  0
M  END
$$$$
