p38a_2u
 OpenBabel02232411163D
Structure written by MMmdl.
 64 68  0  0  0  0  0  0  0  0999 V2000
   38.3170   36.5730   17.1190 C   0  0  0  0  0  0  0  0  0  0  0  0
   34.5820   35.0430   21.1720 C   0  0  0  0  0  0  0  0  0  0  0  0
   37.5380   36.1060   18.1740 C   0  0  0  0  0  0  0  0  0  0  0  0
   34.0040   39.0750   23.7860 C   0  0  0  0  0  0  0  0  0  0  0  0
   34.6820   37.9000   21.3910 C   0  0  0  0  0  0  0  0  0  0  0  0
   35.0900   37.2780   20.1610 C   0  0  0  0  0  0  0  0  0  0  0  0
   37.6680   36.7270   15.8870 C   0  0  0  0  0  0  0  0  0  0  0  0
   36.3220   36.4150   15.6790 C   0  0  0  0  0  0  0  0  0  0  0  0
   35.5650   35.9350   16.7510 C   0  0  0  0  0  0  0  0  0  0  0  0
   34.3150   37.1070   22.5220 C   0  0  0  0  0  0  0  0  0  0  0  0
   34.6420   39.3120   21.5460 C   0  0  0  0  0  0  0  0  0  0  0  0
   35.0780   35.9290   20.0860 C   0  0  0  0  0  0  0  0  0  0  0  0
   36.1790   35.7720   17.9960 C   0  0  0  0  0  0  0  0  0  0  0  0
   38.0700   35.9750   19.3830 F   0  0  0  0  0  0  0  0  0  0  0  0
   35.4650   35.1270   19.0150 O   0  0  0  0  0  0  0  0  0  0  0  0
   34.3170   39.9150   22.6980 N   0  0  0  0  0  0  0  0  0  0  0  0
   34.4410   33.8430   21.0690 O   0  0  0  0  0  0  0  0  0  0  0  0
   34.2570   35.7030   22.4140 N   0  0  0  0  0  0  0  0  0  0  0  0
   34.0120   37.6970   23.7230 N   0  0  0  0  0  0  0  0  0  0  0  0
   33.5950   39.6900   24.9520 N   0  0  0  0  0  0  0  0  0  0  0  0
   39.3680   36.8430   17.2560 H   0  0  0  0  0  0  0  0  0  0  0  0
   35.4050   37.9200   19.3360 H   0  0  0  0  0  0  0  0  0  0  0  0
   35.8510   36.5580   14.7040 H   0  0  0  0  0  0  0  0  0  0  0  0
   34.5020   35.7080   16.6120 H   0  0  0  0  0  0  0  0  0  0  0  0
   34.8840   39.9650   20.6900 H   0  0  0  0  0  0  0  0  0  0  0  0
   33.7050   40.7210   25.0390 H   0  0  0  0  0  0  0  0  0  0  0  0
   38.3600   37.2370   14.8710 F   0  0  0  0  0  0  0  0  0  0  0  0
   32.4360   39.0660   28.5320 C   0  0  0  0  0  0  0  0  0  0  0  0
   32.4360   39.6520   27.1160 C   0  0  0  0  0  0  0  0  0  0  0  0
   33.5150   38.9620   26.2540 C   0  0  0  0  0  0  0  0  0  0  0  0
   34.8880   38.9960   26.9650 C   0  0  0  0  0  0  0  0  0  0  0  0
   34.7580   38.4480   28.3910 C   0  0  0  0  0  0  0  0  0  0  0  0
   33.7440   39.1550   29.1420 O   0  0  0  0  0  0  0  0  0  0  0  0
   32.1110   37.9990   28.5210 H   0  0  0  0  0  0  0  0  0  0  0  0
   31.8080   39.6740   29.2210 H   0  0  0  0  0  0  0  0  0  0  0  0
   32.6370   40.7490   27.1690 H   0  0  0  0  0  0  0  0  0  0  0  0
   31.4340   39.4970   26.6480 H   0  0  0  0  0  0  0  0  0  0  0  0
   33.2100   37.8950   26.0660 H   0  0  0  0  0  0  0  0  0  0  0  0
   35.6170   38.3710   26.3970 H   0  0  0  0  0  0  0  0  0  0  0  0
   35.2650   40.0460   26.9990 H   0  0  0  0  0  0  0  0  0  0  0  0
   34.5040   37.3630   28.3770 H   0  0  0  0  0  0  0  0  0  0  0  0
   35.6770   38.6480   28.9870 H   0  0  0  0  0  0  0  0  0  0  0  0
   31.8230   34.0710   24.9340 C   0  0  0  0  0  0  0  0  0  0  0  0
   32.3190   35.1430   23.9410 C   0  0  0  0  0  0  0  0  0  0  0  0
   33.7670   34.8190   23.5390 C   0  0  0  0  0  0  0  0  0  0  0  0
   34.6680   34.8630   24.7850 C   0  0  0  0  0  0  0  0  0  0  0  0
   34.1860   33.7880   25.7880 C   0  0  0  0  0  0  0  0  0  0  0  0
   31.7320   33.0860   24.4080 H   0  0  0  0  0  0  0  0  0  0  0  0
   30.8120   34.3990   25.3020 H   0  0  0  0  0  0  0  0  0  0  0  0
   32.2660   36.1410   24.4460 H   0  0  0  0  0  0  0  0  0  0  0  0
   31.6450   35.1600   23.0570 H   0  0  0  0  0  0  0  0  0  0  0  0
   33.7930   33.7640   23.1290 H   0  0  0  0  0  0  0  0  0  0  0  0
   35.7300   34.6670   24.5210 H   0  0  0  0  0  0  0  0  0  0  0  0
   34.6010   35.8660   25.2790 H   0  0  0  0  0  0  0  0  0  0  0  0
   34.3750   32.7700   25.3610 H   0  0  0  0  0  0  0  0  0  0  0  0
   34.7720   33.9230   26.7370 H   0  0  0  0  0  0  0  0  0  0  0  0
   32.7390   33.9720   26.1080 N   0  0  0  0  0  0  0  0  0  0  0  0
   32.0990   33.3600   27.5750 S   0  0  0  0  0  0  0  0  0  0  0  0
   33.1110   32.5110   28.2350 O   0  0  0  0  0  0  0  0  0  0  0  0
   30.8650   32.5980   27.2930 O   0  0  0  0  0  0  0  0  0  0  0  0
   31.7760   34.7880   28.4930 C   0  0  0  0  0  0  0  0  0  0  0  0
   32.6740   35.4560   28.5580 H   0  0  0  0  0  0  0  0  0  0  0  0
   30.9580   35.4120   28.0380 H   0  0  0  0  0  0  0  0  0  0  0  0
   31.4580   34.5670   29.5440 H   0  0  0  0  0  0  0  0  0  0  0  0
  1  3  2  0  0  0  0
  1  7  1  0  0  0  0
  1 21  1  0  0  0  0
  2 12  1  0  0  0  0
  2 17  2  0  0  0  0
  2 18  1  0  0  0  0
  3 13  1  0  0  0  0
  3 14  1  0  0  0  0
  4 16  2  0  0  0  0
  4 19  1  0  0  0  0
  4 20  1  0  0  0  0
  5  6  1  0  0  0  0
  5 10  1  0  0  0  0
  5 11  2  0  0  0  0
  6 12  2  0  0  0  0
  6 22  1  0  0  0  0
  7  8  2  0  0  0  0
  7 27  1  0  0  0  0
  8  9  1  0  0  0  0
  8 23  1  0  0  0  0
  9 13  2  0  0  0  0
  9 24  1  0  0  0  0
 10 18  1  0  0  0  0
 10 19  2  0  0  0  0
 11 16  1  0  0  0  0
 11 25  1  0  0  0  0
 12 15  1  0  0  0  0
 13 15  1  0  0  0  0
 18 45  1  0  0  0  0
 20 26  1  0  0  0  0
 20 30  1  0  0  0  0
 28 29  1  0  0  0  0
 28 33  1  0  0  0  0
 28 34  1  0  0  0  0
 28 35  1  0  0  0  0
 29 30  1  0  0  0  0
 29 36  1  0  0  0  0
 29 37  1  0  0  0  0
 30 31  1  0  0  0  0
 30 38  1  0  0  0  0
 31 32  1  0  0  0  0
 31 39  1  0  0  0  0
 31 40  1  0  0  0  0
 32 33  1  0  0  0  0
 32 41  1  0  0  0  0
 32 42  1  0  0  0  0
 43 44  1  0  0  0  0
 43 48  1  0  0  0  0
 43 49  1  0  0  0  0
 43 57  1  0  0  0  0
 44 45  1  0  0  0  0
 44 50  1  0  0  0  0
 44 51  1  0  0  0  0
 45 46  1  0  0  0  0
 45 52  1  0  0  0  0
 46 47  1  0  0  0  0
 46 53  1  0  0  0  0
 46 54  1  0  0  0  0
 47 55  1  0  0  0  0
 47 56  1  0  0  0  0
 47 57  1  0  0  0  0
 57 58  1  0  0  0  0
 58 59  2  0  0  0  0
 58 60  2  0  0  0  0
 58 61  1  0  0  0  0
 61 62  1  0  0  0  0
 61 63  1  0  0  0  0
 61 64  1  0  0  0  0
M  END
$$$$
