18639-1
 OpenBabel02232411163D
Structure written by MMmdl.
 48 49  0  0  0  0  0  0  0  0999 V2000
   23.8890   12.5950   30.3490 C   0  0  0  0  0  0  0  0  0  0  0  0
   23.4190   11.1560   30.4440 C   0  0  0  0  0  0  0  0  0  0  0  0
   22.1750   11.2590   31.2510 O   0  0  0  0  0  0  0  0  0  0  0  0
   21.5460   10.1190   31.6040 C   0  0  0  0  0  0  0  0  0  0  0  0
   22.0230    8.9310   31.1580 N   0  0  0  0  0  0  0  0  0  0  0  0
   21.2990    7.7940   31.4810 C   0  0  0  0  0  0  0  0  0  0  0  0
   20.1470    7.8280   32.2590 C   0  0  0  0  0  0  0  0  0  0  0  0
   19.6640    9.0760   32.7370 C   0  0  0  0  0  0  0  0  0  0  0  0
   18.5190    9.1110   33.4910 N   0  0  0  0  0  0  0  0  0  0  0  0
   20.3740   10.2730   32.4030 C   0  0  0  0  0  0  0  0  0  0  0  0
   19.9670   11.5710   32.7790 C   0  0  0  0  0  0  0  0  0  0  0  0
   19.6810   12.6630   33.0480 N   0  0  0  0  0  0  0  0  0  0  0  0
   21.8660    6.6260   30.9180 N   0  0  0  0  0  0  0  0  0  0  0  0
   21.2560    5.3570   30.8380 C   0  0  0  0  0  0  0  0  0  0  0  0
   20.1640    5.1180   31.3080 O   0  0  0  0  0  0  0  0  0  0  0  0
   22.0640    4.3440   30.0340 C   0  0  0  0  0  0  0  0  0  0  0  0
   23.4150    4.0360   30.6080 C   0  0  0  0  0  0  0  0  0  0  0  0
   24.5360    4.8720   30.3040 C   0  0  0  0  0  0  0  0  0  0  0  0
   24.2110    5.9230   29.4570 O   0  0  0  0  0  0  0  0  0  0  0  0
   25.1980    6.9780   29.2830 C   0  0  0  0  0  0  0  0  0  0  0  0
   25.8020    4.6040   30.8000 C   0  0  0  0  0  0  0  0  0  0  0  0
   25.9940    3.4850   31.6370 C   0  0  0  0  0  0  0  0  0  0  0  0
   27.3320    3.2010   32.1650 N   0  3  0  0  0  0  0  0  0  0  0  0
   27.4280    2.4280   33.1060 O   0  5  0  0  0  0  0  0  0  0  0  0
   28.2960    3.7430   31.6380 O   0  0  0  0  0  0  0  0  0  0  0  0
   24.8990    2.6420   31.9400 C   0  0  0  0  0  0  0  0  0  0  0  0
   23.6180    2.9240   31.4090 C   0  0  0  0  0  0  0  0  0  0  0  0
   25.2110    1.5970   32.7570 O   0  0  0  0  0  0  0  0  0  0  0  0
   24.1920    0.5760   32.9720 C   0  0  0  0  0  0  0  0  0  0  0  0
   24.7730   12.6360   29.6630 H   0  0  0  0  0  0  0  0  0  0  0  0
   23.0910   13.2500   29.9280 H   0  0  0  0  0  0  0  0  0  0  0  0
   24.1910   12.9920   31.3440 H   0  0  0  0  0  0  0  0  0  0  0  0
   23.1390   10.7320   29.4530 H   0  0  0  0  0  0  0  0  0  0  0  0
   24.1380   10.5040   30.9890 H   0  0  0  0  0  0  0  0  0  0  0  0
   19.5960    6.9140   32.4900 H   0  0  0  0  0  0  0  0  0  0  0  0
   18.0210    8.2370   33.7470 H   0  0  0  0  0  0  0  0  0  0  0  0
   18.1150    9.9940   33.8030 H   0  0  0  0  0  0  0  0  0  0  0  0
   22.7870    6.7620   30.4310 H   0  0  0  0  0  0  0  0  0  0  0  0
   21.4660    3.3960   29.9600 H   0  0  0  0  0  0  0  0  0  0  0  0
   22.1980    4.7620   28.9970 H   0  0  0  0  0  0  0  0  0  0  0  0
   25.5240    7.3760   30.2680 H   0  0  0  0  0  0  0  0  0  0  0  0
   26.0450    6.5900   28.6790 H   0  0  0  0  0  0  0  0  0  0  0  0
   24.6070    7.7370   28.7200 H   0  0  0  0  0  0  0  0  0  0  0  0
   26.6600    5.2370   30.5450 H   0  0  0  0  0  0  0  0  0  0  0  0
   22.7840    2.2540   31.6310 H   0  0  0  0  0  0  0  0  0  0  0  0
   24.7510   -0.1660   33.5910 H   0  0  0  0  0  0  0  0  0  0  0  0
   23.3360    1.0020   33.5370 H   0  0  0  0  0  0  0  0  0  0  0  0
   23.8850    0.1340   31.9990 H   0  0  0  0  0  0  0  0  0  0  0  0
  1  2  1  0  0  0  0
  1 30  1  0  0  0  0
  1 31  1  0  0  0  0
  1 32  1  0  0  0  0
  2  3  1  0  0  0  0
  2 33  1  0  0  0  0
  2 34  1  0  0  0  0
  3  4  1  0  0  0  0
  4 10  2  0  0  0  0
  4  5  1  0  0  0  0
  5  6  2  0  0  0  0
  6  7  1  0  0  0  0
  6 13  1  0  0  0  0
  7  8  2  0  0  0  0
  7 35  1  0  0  0  0
  8  9  1  0  0  0  0
  8 10  1  0  0  0  0
  9 36  1  0  0  0  0
  9 37  1  0  0  0  0
 10 11  1  0  0  0  0
 11 12  3  0  0  0  0
 13 14  1  0  0  0  0
 13 38  1  0  0  0  0
 14 15  2  0  0  0  0
 14 16  1  0  0  0  0
 16 17  1  0  0  0  0
 16 39  1  0  0  0  0
 16 40  1  0  0  0  0
 17 27  2  0  0  0  0
 17 18  1  0  0  0  0
 18 19  1  0  0  0  0
 18 21  2  0  0  0  0
 19 20  1  0  0  0  0
 20 41  1  0  0  0  0
 20 42  1  0  0  0  0
 20 43  1  0  0  0  0
 21 22  1  0  0  0  0
 21 44  1  0  0  0  0
 22 23  1  0  0  0  0
 22 26  2  0  0  0  0
 23 24  1  0  0  0  0
 23 25  2  0  0  0  0
 26 27  1  0  0  0  0
 26 28  1  0  0  0  0
 27 45  1  0  0  0  0
 28 29  1  0  0  0  0
 29 46  1  0  0  0  0
 29 47  1  0  0  0  0
 29 48  1  0  0  0  0
M  CHG  2  23   1  24  -1
M  END
$$$$
