p38a_2i
 OpenBabel02232411163D
Structure written by MMmdl.
 48 51  0  0  0  0  0  0  0  0999 V2000
   32.6990   39.8800   27.6090 C   0  0  0  0  0  0  0  0  0  0  0  0
   33.5800   40.8350   28.4250 C   0  0  0  0  0  0  0  0  0  0  0  0
   35.5560   39.5230   28.0380 C   0  0  0  0  0  0  0  0  0  0  0  0
   34.7840   38.4500   27.2680 C   0  0  0  0  0  0  0  0  0  0  0  0
   37.1860   35.5600   16.1730 C   0  0  0  0  0  0  0  0  0  0  0  0
   34.7110   40.1670   29.0200 O   0  0  0  0  0  0  0  0  0  0  0  0
   34.1460   35.2290   21.3930 C   0  0  0  0  0  0  0  0  0  0  0  0
   35.9820   35.3760   16.8540 C   0  0  0  0  0  0  0  0  0  0  0  0
   34.0010   39.1990   24.1650 C   0  0  0  0  0  0  0  0  0  0  0  0
   33.4940   38.9990   26.6230 C   0  0  0  0  0  0  0  0  0  0  0  0
   34.3350   38.0760   21.6720 C   0  0  0  0  0  0  0  0  0  0  0  0
   34.4740   37.4610   20.3870 C   0  0  0  0  0  0  0  0  0  0  0  0
   38.2960   35.9900   16.9060 C   0  0  0  0  0  0  0  0  0  0  0  0
   38.1870   36.1930   18.2840 C   0  0  0  0  0  0  0  0  0  0  0  0
   36.9680   36.0020   18.9400 C   0  0  0  0  0  0  0  0  0  0  0  0
   34.0910   37.2650   22.8220 C   0  0  0  0  0  0  0  0  0  0  0  0
   34.4180   39.4810   21.8720 C   0  0  0  0  0  0  0  0  0  0  0  0
   34.3770   36.1140   20.2410 C   0  0  0  0  0  0  0  0  0  0  0  0
   35.8230   35.6090   18.2340 C   0  0  0  0  0  0  0  0  0  0  0  0
   33.7850   35.0450   23.9000 C   0  0  0  0  0  0  0  0  0  0  0  0
   34.9360   34.9320   16.1490 F   0  0  0  0  0  0  0  0  0  0  0  0
   34.4760   35.4610   18.8900 C   0  0  0  0  0  0  0  0  0  0  0  0
   34.2630   40.0570   23.0690 N   0  0  0  0  0  0  0  0  0  0  0  0
   34.0570   34.0160   21.3690 O   0  0  0  0  0  0  0  0  0  0  0  0
   34.0150   35.8780   22.6870 N   0  0  0  0  0  0  0  0  0  0  0  0
   33.9260   37.8230   24.0680 N   0  0  0  0  0  0  0  0  0  0  0  0
   33.7900   39.7890   25.3840 N   0  0  0  0  0  0  0  0  0  0  0  0
   32.1460   39.1970   28.3010 H   0  0  0  0  0  0  0  0  0  0  0  0
   31.9420   40.4830   27.0500 H   0  0  0  0  0  0  0  0  0  0  0  0
   33.9560   41.6680   27.7900 H   0  0  0  0  0  0  0  0  0  0  0  0
   33.0300   41.2210   29.3140 H   0  0  0  0  0  0  0  0  0  0  0  0
   36.3530   39.0740   28.6740 H   0  0  0  0  0  0  0  0  0  0  0  0
   35.9610   40.2990   27.3500 H   0  0  0  0  0  0  0  0  0  0  0  0
   35.4450   38.0040   26.4850 H   0  0  0  0  0  0  0  0  0  0  0  0
   34.4880   37.6240   27.9640 H   0  0  0  0  0  0  0  0  0  0  0  0
   37.2620   35.3970   15.0970 H   0  0  0  0  0  0  0  0  0  0  0  0
   32.8430   38.1230   26.3280 H   0  0  0  0  0  0  0  0  0  0  0  0
   34.6690   38.1130   19.5280 H   0  0  0  0  0  0  0  0  0  0  0  0
   39.0600   36.5270   18.8450 H   0  0  0  0  0  0  0  0  0  0  0  0
   36.9100   36.1860   20.0140 H   0  0  0  0  0  0  0  0  0  0  0  0
   34.6130   40.1400   21.0090 H   0  0  0  0  0  0  0  0  0  0  0  0
   34.5820   35.2490   24.6650 H   0  0  0  0  0  0  0  0  0  0  0  0
   32.7870   35.2920   24.3540 H   0  0  0  0  0  0  0  0  0  0  0  0
   33.8070   33.9570   23.6300 H   0  0  0  0  0  0  0  0  0  0  0  0
   33.8600   40.8200   25.4750 H   0  0  0  0  0  0  0  0  0  0  0  0
   39.2420   36.1860   16.4060 H   0  0  0  0  0  0  0  0  0  0  0  0
   34.2290   34.3680   18.9740 H   0  0  0  0  0  0  0  0  0  0  0  0
   33.6920   35.9340   18.2330 H   0  0  0  0  0  0  0  0  0  0  0  0
  1  2  1  0  0  0  0
  1 10  1  0  0  0  0
  1 28  1  0  0  0  0
  1 29  1  0  0  0  0
  2  6  1  0  0  0  0
  2 30  1  0  0  0  0
  2 31  1  0  0  0  0
  3  4  1  0  0  0  0
  3  6  1  0  0  0  0
  3 32  1  0  0  0  0
  3 33  1  0  0  0  0
  4 10  1  0  0  0  0
  4 34  1  0  0  0  0
  4 35  1  0  0  0  0
  5  8  2  0  0  0  0
  5 13  1  0  0  0  0
  5 36  1  0  0  0  0
  7 18  1  0  0  0  0
  7 24  2  0  0  0  0
  7 25  1  0  0  0  0
  8 19  1  0  0  0  0
  8 21  1  0  0  0  0
  9 23  2  0  0  0  0
  9 26  1  0  0  0  0
  9 27  1  0  0  0  0
 10 27  1  0  0  0  0
 10 37  1  0  0  0  0
 11 12  1  0  0  0  0
 11 16  1  0  0  0  0
 11 17  2  0  0  0  0
 12 18  2  0  0  0  0
 12 38  1  0  0  0  0
 13 14  2  0  0  0  0
 13 46  1  0  0  0  0
 14 15  1  0  0  0  0
 14 39  1  0  0  0  0
 15 19  2  0  0  0  0
 15 40  1  0  0  0  0
 16 25  1  0  0  0  0
 16 26  2  0  0  0  0
 17 23  1  0  0  0  0
 17 41  1  0  0  0  0
 18 22  1  0  0  0  0
 19 22  1  0  0  0  0
 20 25  1  0  0  0  0
 20 42  1  0  0  0  0
 20 43  1  0  0  0  0
 20 44  1  0  0  0  0
 22 47  1  0  0  0  0
 22 48  1  0  0  0  0
 27 45  1  0  0  0  0
M  END
$$$$
