p38a_2n
 OpenBabel02232411163D
Structure written by MMmdl.
 53 56  0  0  0  0  0  0  0  0999 V2000
   38.3550   36.6330   16.9650 C   0  0  0  0  0  0  0  0  0  0  0  0
   34.5680   34.8110   20.8340 C   0  0  0  0  0  0  0  0  0  0  0  0
   37.5640   36.0990   17.9780 C   0  0  0  0  0  0  0  0  0  0  0  0
   33.6120   38.7290   23.5110 C   0  0  0  0  0  0  0  0  0  0  0  0
   34.5200   37.6770   21.1330 C   0  0  0  0  0  0  0  0  0  0  0  0
   35.0170   37.1030   19.9140 C   0  0  0  0  0  0  0  0  0  0  0  0
   37.7260   36.8370   15.7290 C   0  0  0  0  0  0  0  0  0  0  0  0
   36.3880   36.5220   15.4810 C   0  0  0  0  0  0  0  0  0  0  0  0
   35.6230   35.9560   16.5050 C   0  0  0  0  0  0  0  0  0  0  0  0
   34.0520   36.8320   22.1850 C   0  0  0  0  0  0  0  0  0  0  0  0
   34.4930   39.0790   21.3660 C   0  0  0  0  0  0  0  0  0  0  0  0
   35.0540   35.7560   19.7980 C   0  0  0  0  0  0  0  0  0  0  0  0
   36.2220   35.7300   17.7470 C   0  0  0  0  0  0  0  0  0  0  0  0
   38.0630   35.9400   19.1970 F   0  0  0  0  0  0  0  0  0  0  0  0
   35.5140   35.0100   18.7150 O   0  0  0  0  0  0  0  0  0  0  0  0
   34.0660   39.6180   22.5160 N   0  0  0  0  0  0  0  0  0  0  0  0
   34.5750   33.6020   20.7270 O   0  0  0  0  0  0  0  0  0  0  0  0
   34.0720   35.4310   22.0320 N   0  0  0  0  0  0  0  0  0  0  0  0
   33.6060   37.3540   23.3720 N   0  0  0  0  0  0  0  0  0  0  0  0
   33.0950   39.2880   24.6590 N   0  0  0  0  0  0  0  0  0  0  0  0
   39.3960   36.9170   17.1390 H   0  0  0  0  0  0  0  0  0  0  0  0
   35.3560   37.7780   19.1260 H   0  0  0  0  0  0  0  0  0  0  0  0
   35.9270   36.7270   14.5140 H   0  0  0  0  0  0  0  0  0  0  0  0
   34.5710   35.7100   16.3320 H   0  0  0  0  0  0  0  0  0  0  0  0
   34.8400   39.7790   20.5840 H   0  0  0  0  0  0  0  0  0  0  0  0
   33.2400   40.3040   24.8330 H   0  0  0  0  0  0  0  0  0  0  0  0
   38.4270   37.4000   14.7500 F   0  0  0  0  0  0  0  0  0  0  0  0
   31.3000   38.4070   27.9110 C   0  0  0  0  0  0  0  0  0  0  0  0
   31.5990   39.1610   26.6090 C   0  0  0  0  0  0  0  0  0  0  0  0
   32.7590   38.4670   25.8630 C   0  0  0  0  0  0  0  0  0  0  0  0
   33.9860   38.3320   26.7900 C   0  0  0  0  0  0  0  0  0  0  0  0
   33.5800   37.6320   28.0930 C   0  0  0  0  0  0  0  0  0  0  0  0
   32.4770   38.3050   28.7440 O   0  0  0  0  0  0  0  0  0  0  0  0
   30.9120   37.3840   27.6980 H   0  0  0  0  0  0  0  0  0  0  0  0
   30.5980   38.9770   28.5610 H   0  0  0  0  0  0  0  0  0  0  0  0
   31.8810   40.2160   26.8370 H   0  0  0  0  0  0  0  0  0  0  0  0
   30.6890   39.1700   25.9640 H   0  0  0  0  0  0  0  0  0  0  0  0
   32.4260   37.4450   25.5250 H   0  0  0  0  0  0  0  0  0  0  0  0
   34.7790   37.7270   26.2850 H   0  0  0  0  0  0  0  0  0  0  0  0
   34.4080   39.3410   27.0130 H   0  0  0  0  0  0  0  0  0  0  0  0
   33.2930   36.5720   27.9010 H   0  0  0  0  0  0  0  0  0  0  0  0
   34.3880   37.7040   28.8580 H   0  0  0  0  0  0  0  0  0  0  0  0
   33.5270   34.5380   23.1100 C   0  0  0  0  0  0  0  0  0  0  0  0
   34.1550   33.6060   23.1320 H   0  0  0  0  0  0  0  0  0  0  0  0
   33.6290   35.0580   24.1060 H   0  0  0  0  0  0  0  0  0  0  0  0
   32.0480   34.1820   22.8900 C   0  0  0  0  0  0  0  0  0  0  0  0
   31.7230   33.5510   23.7600 H   0  0  0  0  0  0  0  0  0  0  0  0
   31.4280   35.1110   22.9100 H   0  0  0  0  0  0  0  0  0  0  0  0
   31.7990   33.4120   21.5910 C   0  0  0  0  0  0  0  0  0  0  0  0
   31.7080   34.0930   20.7200 H   0  0  0  0  0  0  0  0  0  0  0  0
   32.5740   32.6310   21.4220 H   0  0  0  0  0  0  0  0  0  0  0  0
   30.5430   32.7060   21.7320 O   0  0  0  0  0  0  0  0  0  0  0  0
   30.1290   32.6760   20.7860 H   0  0  0  0  0  0  0  0  0  0  0  0
  1  3  2  0  0  0  0
  1  7  1  0  0  0  0
  1 21  1  0  0  0  0
  2 12  1  0  0  0  0
  2 17  2  0  0  0  0
  2 18  1  0  0  0  0
  3 13  1  0  0  0  0
  3 14  1  0  0  0  0
  4 16  2  0  0  0  0
  4 19  1  0  0  0  0
  4 20  1  0  0  0  0
  5  6  1  0  0  0  0
  5 10  1  0  0  0  0
  5 11  2  0  0  0  0
  6 12  2  0  0  0  0
  6 22  1  0  0  0  0
  7  8  2  0  0  0  0
  7 27  1  0  0  0  0
  8  9  1  0  0  0  0
  8 23  1  0  0  0  0
  9 13  2  0  0  0  0
  9 24  1  0  0  0  0
 10 18  1  0  0  0  0
 10 19  2  0  0  0  0
 11 16  1  0  0  0  0
 11 25  1  0  0  0  0
 12 15  1  0  0  0  0
 13 15  1  0  0  0  0
 18 43  1  0  0  0  0
 20 26  1  0  0  0  0
 20 30  1  0  0  0  0
 28 29  1  0  0  0  0
 28 33  1  0  0  0  0
 28 34  1  0  0  0  0
 28 35  1  0  0  0  0
 29 30  1  0  0  0  0
 29 36  1  0  0  0  0
 29 37  1  0  0  0  0
 30 31  1  0  0  0  0
 30 38  1  0  0  0  0
 31 32  1  0  0  0  0
 31 39  1  0  0  0  0
 31 40  1  0  0  0  0
 32 33  1  0  0  0  0
 32 41  1  0  0  0  0
 32 42  1  0  0  0  0
 43 44  1  0  0  0  0
 43 45  1  0  0  0  0
 43 46  1  0  0  0  0
 46 47  1  0  0  0  0
 46 48  1  0  0  0  0
 46 49  1  0  0  0  0
 49 50  1  0  0  0  0
 49 51  1  0  0  0  0
 49 52  1  0  0  0  0
 52 53  1  0  0  0  0
M  END
$$$$
