p38a_2aa
 OpenBabel02232411163D
Structure written by MMmdl.
 43 45  0  0  0  0  0  0  0  0999 V2000
   36.3440   36.0060   15.8760 C   0  0  0  0  0  0  0  0  0  0  0  0
   34.5850   35.0710   21.4670 C   0  0  0  0  0  0  0  0  0  0  0  0
   35.6640   35.5630   17.0060 C   0  0  0  0  0  0  0  0  0  0  0  0
   34.0690   39.1880   23.9370 C   0  0  0  0  0  0  0  0  0  0  0  0
   33.7180   39.1770   26.4210 C   0  0  0  0  0  0  0  0  0  0  0  0
   34.7520   37.9420   21.5800 C   0  0  0  0  0  0  0  0  0  0  0  0
   35.1690   37.2590   20.3830 C   0  0  0  0  0  0  0  0  0  0  0  0
   37.6390   36.4980   16.0790 C   0  0  0  0  0  0  0  0  0  0  0  0
   38.2670   36.5220   17.3280 C   0  0  0  0  0  0  0  0  0  0  0  0
   37.5500   36.1050   18.4540 C   0  0  0  0  0  0  0  0  0  0  0  0
   34.3970   37.1930   22.7410 C   0  0  0  0  0  0  0  0  0  0  0  0
   34.6890   39.3560   21.6830 C   0  0  0  0  0  0  0  0  0  0  0  0
   35.1200   35.9070   20.3560 C   0  0  0  0  0  0  0  0  0  0  0  0
   36.2470   35.6270   18.2890 C   0  0  0  0  0  0  0  0  0  0  0  0
   33.9850   35.0360   23.9220 C   0  0  0  0  0  0  0  0  0  0  0  0
   34.4450   35.0510   16.9020 F   0  0  0  0  0  0  0  0  0  0  0  0
   35.4920   35.0540   19.3210 O   0  0  0  0  0  0  0  0  0  0  0  0
   34.3590   39.9910   22.8210 N   0  0  0  0  0  0  0  0  0  0  0  0
   34.3500   33.8850   21.4020 O   0  0  0  0  0  0  0  0  0  0  0  0
   34.3400   35.7920   22.6890 N   0  0  0  0  0  0  0  0  0  0  0  0
   34.0820   37.8130   23.9270 N   0  0  0  0  0  0  0  0  0  0  0  0
   33.6460   39.8440   25.0870 N   0  0  0  0  0  0  0  0  0  0  0  0
   35.8840   35.9950   14.8840 H   0  0  0  0  0  0  0  0  0  0  0  0
   33.9250   40.2300   27.5420 C   0  0  0  0  0  0  0  0  0  0  0  0
   35.5230   37.8610   19.5430 H   0  0  0  0  0  0  0  0  0  0  0  0
   39.2920   36.8900   17.4300 H   0  0  0  0  0  0  0  0  0  0  0  0
   38.0050   36.1770   19.4450 H   0  0  0  0  0  0  0  0  0  0  0  0
   34.9130   39.9820   20.8030 H   0  0  0  0  0  0  0  0  0  0  0  0
   34.6850   35.3170   24.7560 H   0  0  0  0  0  0  0  0  0  0  0  0
   32.9380   35.2860   24.2430 H   0  0  0  0  0  0  0  0  0  0  0  0
   34.0630   33.9330   23.7390 H   0  0  0  0  0  0  0  0  0  0  0  0
   33.7480   40.8770   25.1130 H   0  0  0  0  0  0  0  0  0  0  0  0
   38.2880   37.0000   15.0310 F   0  0  0  0  0  0  0  0  0  0  0  0
   32.4050   38.3930   26.6860 C   0  0  0  0  0  0  0  0  0  0  0  0
   31.2550   39.2470   26.6800 O   0  0  0  0  0  0  0  0  0  0  0  0
   31.2140   39.7370   25.8280 H   0  0  0  0  0  0  0  0  0  0  0  0
   32.2670   37.5890   25.9260 H   0  0  0  0  0  0  0  0  0  0  0  0
   32.4110   37.9700   27.7200 H   0  0  0  0  0  0  0  0  0  0  0  0
   35.0240   41.1090   27.2550 O   0  0  0  0  0  0  0  0  0  0  0  0
   33.0020   40.8370   27.6920 H   0  0  0  0  0  0  0  0  0  0  0  0
   34.2340   39.7140   28.4840 H   0  0  0  0  0  0  0  0  0  0  0  0
   34.6800   41.8180   26.6230 H   0  0  0  0  0  0  0  0  0  0  0  0
   34.5710   38.4390   26.4500 H   0  0  0  0  0  0  0  0  0  0  0  0
  1  3  2  0  0  0  0
  1  8  1  0  0  0  0
  1 23  1  0  0  0  0
  2 13  1  0  0  0  0
  2 19  2  0  0  0  0
  2 20  1  0  0  0  0
  3 14  1  0  0  0  0
  3 16  1  0  0  0  0
  4 18  2  0  0  0  0
  4 21  1  0  0  0  0
  4 22  1  0  0  0  0
  5 22  1  0  0  0  0
  5 24  1  0  0  0  0
  5 34  1  0  0  0  0
  5 43  1  0  0  0  0
  6  7  1  0  0  0  0
  6 11  1  0  0  0  0
  6 12  2  0  0  0  0
  7 13  2  0  0  0  0
  7 25  1  0  0  0  0
  8  9  2  0  0  0  0
  8 33  1  0  0  0  0
  9 10  1  0  0  0  0
  9 26  1  0  0  0  0
 10 14  2  0  0  0  0
 10 27  1  0  0  0  0
 11 20  1  0  0  0  0
 11 21  2  0  0  0  0
 12 18  1  0  0  0  0
 12 28  1  0  0  0  0
 13 17  1  0  0  0  0
 14 17  1  0  0  0  0
 15 20  1  0  0  0  0
 15 29  1  0  0  0  0
 15 30  1  0  0  0  0
 15 31  1  0  0  0  0
 22 32  1  0  0  0  0
 24 39  1  0  0  0  0
 24 40  1  0  0  0  0
 24 41  1  0  0  0  0
 34 35  1  0  0  0  0
 34 37  1  0  0  0  0
 34 38  1  0  0  0  0
 35 36  1  0  0  0  0
 39 42  1  0  0  0  0
M  END
$$$$
