p38a_2n
 OpenBabel02232411163D
Structure written by MMmdl.
 53 56  0  0  0  0  0  0  0  0999 V2000
   36.4330   36.1530   15.6300 C   0  0  0  0  0  0  0  0  0  0  0  0
   34.5910   34.8400   21.0170 C   0  0  0  0  0  0  0  0  0  0  0  0
   35.8350   35.6020   16.7580 C   0  0  0  0  0  0  0  0  0  0  0  0
   33.7380   38.8220   23.6330 C   0  0  0  0  0  0  0  0  0  0  0  0
   34.7080   37.6910   21.3130 C   0  0  0  0  0  0  0  0  0  0  0  0
   35.3020   37.0820   20.1550 C   0  0  0  0  0  0  0  0  0  0  0  0
   37.7140   36.6940   15.8030 C   0  0  0  0  0  0  0  0  0  0  0  0
   38.3950   36.6870   17.0230 C   0  0  0  0  0  0  0  0  0  0  0  0
   37.7540   36.1680   18.1540 C   0  0  0  0  0  0  0  0  0  0  0  0
   34.1240   36.8900   22.3410 C   0  0  0  0  0  0  0  0  0  0  0  0
   34.7080   39.0990   21.5080 C   0  0  0  0  0  0  0  0  0  0  0  0
   35.2690   35.7350   20.0450 C   0  0  0  0  0  0  0  0  0  0  0  0
   36.4760   35.6210   18.0140 C   0  0  0  0  0  0  0  0  0  0  0  0
   34.6410   35.0300   16.6780 F   0  0  0  0  0  0  0  0  0  0  0  0
   35.8220   34.9380   19.0460 O   0  0  0  0  0  0  0  0  0  0  0  0
   34.2470   39.6740   22.6240 N   0  0  0  0  0  0  0  0  0  0  0  0
   34.4760   33.6400   20.8800 O   0  0  0  0  0  0  0  0  0  0  0  0
   34.0580   35.4920   22.1840 N   0  0  0  0  0  0  0  0  0  0  0  0
   33.6410   37.4510   23.5010 N   0  0  0  0  0  0  0  0  0  0  0  0
   33.3090   39.4750   24.7630 N   0  0  0  0  0  0  0  0  0  0  0  0
   35.9240   36.1810   14.6650 H   0  0  0  0  0  0  0  0  0  0  0  0
   35.7750   37.7320   19.4160 H   0  0  0  0  0  0  0  0  0  0  0  0
   39.3990   37.1060   17.1120 H   0  0  0  0  0  0  0  0  0  0  0  0
   38.2490   36.2160   19.1270 H   0  0  0  0  0  0  0  0  0  0  0  0
   35.1030   39.7680   20.7240 H   0  0  0  0  0  0  0  0  0  0  0  0
   33.4840   40.5010   24.8240 H   0  0  0  0  0  0  0  0  0  0  0  0
   38.2910   37.2730   14.7530 F   0  0  0  0  0  0  0  0  0  0  0  0
   33.4010   37.4540   28.0460 C   0  0  0  0  0  0  0  0  0  0  0  0
   33.9260   37.9770   26.7010 C   0  0  0  0  0  0  0  0  0  0  0  0
   32.8590   38.8820   26.0560 C   0  0  0  0  0  0  0  0  0  0  0  0
   31.5230   38.1270   25.9210 C   0  0  0  0  0  0  0  0  0  0  0  0
   31.1030   37.6010   27.3000 C   0  0  0  0  0  0  0  0  0  0  0  0
   32.1310   36.7810   27.9020 O   0  0  0  0  0  0  0  0  0  0  0  0
   33.2910   38.2850   28.7810 H   0  0  0  0  0  0  0  0  0  0  0  0
   34.0560   36.6430   28.4440 H   0  0  0  0  0  0  0  0  0  0  0  0
   34.1590   37.1140   26.0310 H   0  0  0  0  0  0  0  0  0  0  0  0
   34.8660   38.5540   26.8710 H   0  0  0  0  0  0  0  0  0  0  0  0
   32.7000   39.7830   26.7240 H   0  0  0  0  0  0  0  0  0  0  0  0
   30.7360   38.8150   25.5290 H   0  0  0  0  0  0  0  0  0  0  0  0
   31.6350   37.2730   25.2090 H   0  0  0  0  0  0  0  0  0  0  0  0
   30.8600   38.4380   27.9920 H   0  0  0  0  0  0  0  0  0  0  0  0
   30.2550   36.8830   27.2160 H   0  0  0  0  0  0  0  0  0  0  0  0
   33.4200   34.6220   23.2320 C   0  0  0  0  0  0  0  0  0  0  0  0
   34.0130   33.6670   23.2860 H   0  0  0  0  0  0  0  0  0  0  0  0
   33.4930   35.1440   24.2280 H   0  0  0  0  0  0  0  0  0  0  0  0
   31.9420   34.3160   22.9440 C   0  0  0  0  0  0  0  0  0  0  0  0
   31.5550   33.7070   23.8050 H   0  0  0  0  0  0  0  0  0  0  0  0
   31.3570   35.2660   22.9270 H   0  0  0  0  0  0  0  0  0  0  0  0
   31.7210   33.5340   21.6460 C   0  0  0  0  0  0  0  0  0  0  0  0
   31.6580   34.2060   20.7660 H   0  0  0  0  0  0  0  0  0  0  0  0
   32.4920   32.7430   21.5080 H   0  0  0  0  0  0  0  0  0  0  0  0
   30.4540   32.8420   21.7650 O   0  0  0  0  0  0  0  0  0  0  0  0
   30.0720   32.7750   20.8130 H   0  0  0  0  0  0  0  0  0  0  0  0
  1  3  2  0  0  0  0
  1  7  1  0  0  0  0
  1 21  1  0  0  0  0
  2 12  1  0  0  0  0
  2 17  2  0  0  0  0
  2 18  1  0  0  0  0
  3 13  1  0  0  0  0
  3 14  1  0  0  0  0
  4 16  2  0  0  0  0
  4 19  1  0  0  0  0
  4 20  1  0  0  0  0
  5  6  1  0  0  0  0
  5 10  1  0  0  0  0
  5 11  2  0  0  0  0
  6 12  2  0  0  0  0
  6 22  1  0  0  0  0
  7  8  2  0  0  0  0
  7 27  1  0  0  0  0
  8  9  1  0  0  0  0
  8 23  1  0  0  0  0
  9 13  2  0  0  0  0
  9 24  1  0  0  0  0
 10 18  1  0  0  0  0
 10 19  2  0  0  0  0
 11 16  1  0  0  0  0
 11 25  1  0  0  0  0
 12 15  1  0  0  0  0
 13 15  1  0  0  0  0
 18 43  1  0  0  0  0
 20 26  1  0  0  0  0
 20 30  1  0  0  0  0
 28 29  1  0  0  0  0
 28 33  1  0  0  0  0
 28 34  1  0  0  0  0
 28 35  1  0  0  0  0
 29 30  1  0  0  0  0
 29 36  1  0  0  0  0
 29 37  1  0  0  0  0
 30 31  1  0  0  0  0
 30 38  1  0  0  0  0
 31 32  1  0  0  0  0
 31 39  1  0  0  0  0
 31 40  1  0  0  0  0
 32 33  1  0  0  0  0
 32 41  1  0  0  0  0
 32 42  1  0  0  0  0
 43 44  1  0  0  0  0
 43 45  1  0  0  0  0
 43 46  1  0  0  0  0
 46 47  1  0  0  0  0
 46 48  1  0  0  0  0
 46 49  1  0  0  0  0
 49 50  1  0  0  0  0
 49 51  1  0  0  0  0
 49 52  1  0  0  0  0
 52 53  1  0  0  0  0
M  END
$$$$
