22
                    3D
 Schrodinger Suite 2022-3.
 49 52  0  0  1  0  0  0  0  0999 V2000
    1.8990   28.9960    6.6620 C   0  0  0  0  0  0  0  0  0  0  0  0
   -1.5850   31.5890    7.8460 C   0  0  0  0  0  0  0  0  0  0  0  0
   -0.2230   26.1040    8.7090 C   0  0  0  0  0  0  0  0  0  0  0  0
   -1.0480   25.4860    9.8440 C   0  0  0  0  0  0  0  0  0  0  0  0
   -1.0510   23.9530    9.6590 C   0  0  0  0  0  0  0  0  0  0  0  0
   -1.7920   23.2670   10.8150 C   0  0  0  0  0  0  0  0  0  0  0  0
   -1.2060   23.6600   12.1800 C   0  0  0  0  0  0  0  0  0  0  0  0
   -1.2160   25.1860   12.3680 C   0  0  0  0  0  0  0  0  0  0  0  0
   -0.4790   25.8900   11.2190 C   0  0  0  0  0  0  0  0  0  0  0  0
    5.4880   25.9360    5.2210 C   0  0  0  0  0  0  0  0  0  0  0  0
    5.3910   25.0650    6.3100 C   0  0  0  0  0  0  0  0  0  0  0  0
    4.5160   25.3880    7.3500 C   0  0  0  0  0  0  0  0  0  0  0  0
    3.7360   26.5450    7.3390 C   0  0  0  0  0  0  0  0  0  0  0  0
    1.1750   28.0280    7.3580 N   0  0  0  0  0  0  0  0  0  0  0  0
   -0.0220   28.3650    7.9030 C   0  0  0  0  0  0  0  0  0  0  0  0
   -0.7570   27.4770    8.5860 O   0  0  0  0  0  0  0  0  0  0  0  0
   -0.5290   29.6840    7.7740 C   0  0  0  0  0  0  0  0  0  0  0  0
   -1.6890   30.3170    8.2380 N   0  0  0  0  0  0  0  0  0  0  0  0
   -0.3520   31.8440    7.1460 N   0  0  0  0  0  0  0  0  0  0  0  0
    0.3130   30.6240    7.0570 C   0  0  0  0  0  0  0  0  0  0  0  0
    1.5090   30.3140    6.4640 N   0  0  0  0  0  0  0  0  0  0  0  0
    3.1210   28.6390    6.1080 N   0  0  0  0  0  0  0  0  0  0  0  0
    3.8240   27.3960    6.2240 C   0  0  0  0  0  0  0  0  0  0  0  0
    4.7120   27.0910    5.1690 C   0  0  0  0  0  0  0  0  0  0  0  0
   -2.3010   32.3850    8.0210 H   0  0  0  0  0  0  0  0  0  0  0  0
   -0.4130   25.6200    7.7310 H   0  0  0  0  0  0  0  0  0  0  0  0
    0.8580   26.1570    8.9580 H   0  0  0  0  0  0  0  0  0  0  0  0
   -2.1020   25.8590    9.7750 H   0  0  0  0  0  0  0  0  0  0  0  0
   -0.0010   23.5760    9.6340 H   0  0  0  0  0  0  0  0  0  0  0  0
   -1.5540   23.6970    8.7010 H   0  0  0  0  0  0  0  0  0  0  0  0
   -1.7270   22.1610   10.6980 H   0  0  0  0  0  0  0  0  0  0  0  0
   -2.8610   23.5720   10.7840 H   0  0  0  0  0  0  0  0  0  0  0  0
   -0.1570   23.2890   12.2530 H   0  0  0  0  0  0  0  0  0  0  0  0
   -1.8060   23.1830   12.9890 H   0  0  0  0  0  0  0  0  0  0  0  0
   -0.7100   25.4360   13.3310 H   0  0  0  0  0  0  0  0  0  0  0  0
   -2.2700   25.5440   12.4230 H   0  0  0  0  0  0  0  0  0  0  0  0
   -0.5680   26.9920   11.3470 H   0  0  0  0  0  0  0  0  0  0  0  0
    0.6010   25.6110   11.2750 H   0  0  0  0  0  0  0  0  0  0  0  0
    5.9930   24.1540    6.3190 H   0  0  0  0  0  0  0  0  0  0  0  0
    4.5230   24.2580    8.6960 S   0  0  0  0  0  0  0  0  0  0  0  0
    3.0710   26.7830    8.1720 H   0  0  0  0  0  0  0  0  0  0  0  0
   -0.1210   32.7170    6.6520 H   0  0  0  0  0  0  0  0  0  0  0  0
    3.5740   29.3190    5.4460 H   0  0  0  0  0  0  0  0  0  0  0  0
    4.8050   27.7540    4.3100 H   0  0  0  0  0  0  0  0  0  0  0  0
    6.1750   25.7090    4.4000 H   0  0  0  0  0  0  0  0  0  0  0  0
    2.8730   24.3670    9.4180 C   0  0  0  0  0  0  0  0  0  0  0  0
    2.7920   23.5180   10.1420 H   0  0  0  0  0  0  0  0  0  0  0  0
    2.7430   25.3110    9.9920 H   0  0  0  0  0  0  0  0  0  0  0  0
    2.0840   24.2590    8.6500 H   0  0  0  0  0  0  0  0  0  0  0  0
  1 14  1  0  0  0  0
  1 21  2  0  0  0  0
  1 22  1  0  0  0  0
  2 18  2  0  0  0  0
  2 19  1  0  0  0  0
  2 25  1  0  0  0  0
  3  4  1  0  0  0  0
  3 16  1  0  0  0  0
  3 26  1  0  0  0  0
  3 27  1  0  0  0  0
  4  5  1  0  0  0  0
  4  9  1  0  0  0  0
  4 28  1  0  0  0  0
  5  6  1  0  0  0  0
  5 29  1  0  0  0  0
  5 30  1  0  0  0  0
  6  7  1  0  0  0  0
  6 31  1  0  0  0  0
  6 32  1  0  0  0  0
  7  8  1  0  0  0  0
  7 33  1  0  0  0  0
  7 34  1  0  0  0  0
  8  9  1  0  0  0  0
  8 35  1  0  0  0  0
  8 36  1  0  0  0  0
  9 37  1  0  0  0  0
  9 38  1  0  0  0  0
 10 11  1  0  0  0  0
 10 24  2  0  0  0  0
 10 45  1  0  0  0  0
 11 12  2  0  0  0  0
 11 39  1  0  0  0  0
 12 13  1  0  0  0  0
 12 40  1  0  0  0  0
 13 23  2  0  0  0  0
 13 41  1  0  0  0  0
 14 15  2  0  0  0  0
 15 16  1  0  0  0  0
 15 17  1  0  0  0  0
 17 18  1  0  0  0  0
 17 20  2  0  0  0  0
 19 20  1  0  0  0  0
 19 42  1  0  0  0  0
 20 21  1  0  0  0  0
 22 23  1  0  0  0  0
 22 43  1  0  0  0  0
 23 24  1  0  0  0  0
 24 44  1  0  0  0  0
 40 46  1  0  0  0  0
 46 47  1  0  0  0  0
 46 48  1  0  0  0  0
 46 49  1  0  0  0  0
M  END
$$$$
