52
 OpenBabel02232411163D
Structure written by MMmdl.
 41 43  0  0  0  0  0  0  0  0999 V2000
    3.8880  -49.9210    5.4780 O   0  0  0  0  0  0  0  0  0  0  0  0
    3.2020  -49.2410    6.2630 C   0  0  0  0  0  0  0  0  0  0  0  0
    3.6100  -48.4380    7.1120 O   0  5  0  0  0  0  0  0  0  0  0  0
    1.6810  -49.4760    6.1770 C   0  0  0  0  0  0  0  0  0  0  0  0
   -0.2040  -50.7740    6.1980 C   0  0  0  0  0  0  0  0  0  0  0  0
   -1.1500  -51.8070    6.3250 C   0  0  0  0  0  0  0  0  0  0  0  0
   -2.4710  -51.4160    6.2110 C   0  0  0  0  0  0  0  0  0  0  0  0
   -2.8990  -50.1010    5.9500 C   0  0  0  0  0  0  0  0  0  0  0  0
   -1.9570  -49.0870    5.8260 C   0  0  0  0  0  0  0  0  0  0  0  0
   -0.5980  -49.4040    5.9680 C   0  0  0  0  0  0  0  0  0  0  0  0
    0.6140  -48.6110    5.9820 C   0  0  0  0  0  0  0  0  0  0  0  0
    0.5730  -47.1270    5.9100 C   0  0  0  0  0  0  0  0  0  0  0  0
   -0.0050  -46.5850    7.2370 C   0  0  0  0  0  0  0  0  0  0  0  0
   -0.7140  -45.2470    7.0910 C   0  0  0  0  0  0  0  0  0  0  0  0
   -1.8770  -45.4070    6.2110 O   0  0  0  0  0  0  0  0  0  0  0  0
   -3.1270  -45.3110    6.7550 C   0  0  0  0  0  0  0  0  0  0  0  0
   -4.0660  -44.6930    5.9050 C   0  0  0  0  0  0  0  0  0  0  0  0
   -5.3890  -44.5420    6.3250 C   0  0  0  0  0  0  0  0  0  0  0  0
   -6.4100  -43.9180    5.4340 C   0  0  0  0  0  0  0  0  0  0  0  0
   -5.7310  -45.0310    7.6010 C   0  0  0  0  0  0  0  0  0  0  0  0
   -7.3620  -44.8820    8.1500 Cl  0  0  0  0  0  0  0  0  0  0  0  0
   -4.8090  -45.6630    8.4370 C   0  0  0  0  0  0  0  0  0  0  0  0
   -3.4870  -45.8090    8.0190 C   0  0  0  0  0  0  0  0  0  0  0  0
   -0.8610  -52.8410    6.5140 H   0  0  0  0  0  0  0  0  0  0  0  0
   -3.7090  -52.6280    6.3850 Cl  0  0  0  0  0  0  0  0  0  0  0  0
   -3.9640  -49.8850    5.8510 H   0  0  0  0  0  0  0  0  0  0  0  0
   -2.2790  -48.0610    5.6310 H   0  0  0  0  0  0  0  0  0  0  0  0
   -0.1120  -46.8210    5.0770 H   0  0  0  0  0  0  0  0  0  0  0  0
    1.5780  -46.6880    5.7230 H   0  0  0  0  0  0  0  0  0  0  0  0
    0.8160  -46.4690    7.9790 H   0  0  0  0  0  0  0  0  0  0  0  0
   -0.7500  -47.3190    7.6370 H   0  0  0  0  0  0  0  0  0  0  0  0
   -0.1200  -44.5110    6.5060 H   0  0  0  0  0  0  0  0  0  0  0  0
   -1.0360  -44.8250    8.0670 H   0  0  0  0  0  0  0  0  0  0  0  0
   -3.7540  -44.3450    4.9210 H   0  0  0  0  0  0  0  0  0  0  0  0
   -7.0960  -44.7120    5.0470 H   0  0  0  0  0  0  0  0  0  0  0  0
   -7.0220  -43.1690    5.9860 H   0  0  0  0  0  0  0  0  0  0  0  0
   -5.9290  -43.4120    4.5670 H   0  0  0  0  0  0  0  0  0  0  0  0
   -2.7720  -46.3250    8.6560 H   0  0  0  0  0  0  0  0  0  0  0  0
   -5.1250  -46.0490    9.4110 H   0  0  0  0  0  0  0  0  0  0  0  0
    1.1910  -50.7950    6.3010 N   0  0  0  0  0  0  0  0  0  0  0  0
    1.7300  -51.6420    6.4490 H   0  0  0  0  0  0  0  0  0  0  0  0
  1  2  2  0  0  0  0
  2  3  1  0  0  0  0
  2  4  1  0  0  0  0
  4 11  2  0  0  0  0
  4 40  1  0  0  0  0
  5  6  2  0  0  0  0
  5 10  1  0  0  0  0
  5 40  1  0  0  0  0
  6  7  1  0  0  0  0
  6 24  1  0  0  0  0
  7  8  2  0  0  0  0
  7 25  1  0  0  0  0
  8  9  1  0  0  0  0
  8 26  1  0  0  0  0
  9 10  2  0  0  0  0
  9 27  1  0  0  0  0
 10 11  1  0  0  0  0
 11 12  1  0  0  0  0
 12 28  1  0  0  0  0
 12 29  1  0  0  0  0
 12 13  1  0  0  0  0
 13 14  1  0  0  0  0
 13 30  1  0  0  0  0
 13 31  1  0  0  0  0
 14 15  1  0  0  0  0
 14 32  1  0  0  0  0
 14 33  1  0  0  0  0
 15 16  1  0  0  0  0
 16 17  2  0  0  0  0
 16 23  1  0  0  0  0
 17 18  1  0  0  0  0
 17 34  1  0  0  0  0
 18 19  1  0  0  0  0
 18 20  2  0  0  0  0
 19 35  1  0  0  0  0
 19 36  1  0  0  0  0
 19 37  1  0  0  0  0
 20 21  1  0  0  0  0
 20 22  1  0  0  0  0
 22 23  2  0  0  0  0
 22 39  1  0  0  0  0
 23 38  1  0  0  0  0
 40 41  1  0  0  0  0
M  CHG  1   3  -1
M  END
$$$$
