1oiy
                    3D
 Schrodinger Suite 2022-3.
 49 52  0  0  1  0  0  0  0  0999 V2000
    1.7700   29.0310    6.7470 C   0  0  0  0  0  0  0  0  0  0  0  0
   -1.7480   31.5570    7.9480 C   0  0  0  0  0  0  0  0  0  0  0  0
   -0.1920   26.1050    8.8560 C   0  0  0  0  0  0  0  0  0  0  0  0
   -1.0350   25.4160    9.9370 C   0  0  0  0  0  0  0  0  0  0  0  0
   -0.7450   23.9010    9.8580 C   0  0  0  0  0  0  0  0  0  0  0  0
   -1.4860   23.1390   10.9650 C   0  0  0  0  0  0  0  0  0  0  0  0
   -1.1560   23.6970   12.3580 C   0  0  0  0  0  0  0  0  0  0  0  0
   -1.4480   25.2050   12.4400 C   0  0  0  0  0  0  0  0  0  0  0  0
   -0.7140   25.9800   11.3360 C   0  0  0  0  0  0  0  0  0  0  0  0
    5.2360   25.9680    5.1170 C   0  0  0  0  0  0  0  0  0  0  0  0
    5.2900   25.1530    6.2590 C   0  0  0  0  0  0  0  0  0  0  0  0
    4.5160   25.4660    7.3820 C   0  0  0  0  0  0  0  0  0  0  0  0
    3.7090   26.6090    7.3900 C   0  0  0  0  0  0  0  0  0  0  0  0
    1.0790   28.0480    7.4510 N   0  0  0  0  0  0  0  0  0  0  0  0
   -0.1160   28.3620    8.0200 C   0  0  0  0  0  0  0  0  0  0  0  0
   -0.8040   27.4520    8.7200 O   0  0  0  0  0  0  0  0  0  0  0  0
   -0.6510   29.6720    7.8890 C   0  0  0  0  0  0  0  0  0  0  0  0
   -1.8190   30.2870    8.3540 N   0  0  0  0  0  0  0  0  0  0  0  0
   -0.5280   31.8320    7.2320 N   0  0  0  0  0  0  0  0  0  0  0  0
    0.1620   30.6260    7.1550 C   0  0  0  0  0  0  0  0  0  0  0  0
    1.3580   30.3380    6.5490 N   0  0  0  0  0  0  0  0  0  0  0  0
    2.9990   28.6930    6.1890 N   0  0  0  0  0  0  0  0  0  0  0  0
    3.6770   27.4360    6.2550 C   0  0  0  0  0  0  0  0  0  0  0  0
    4.4380   27.1010    5.1120 C   0  0  0  0  0  0  0  0  0  0  0  0
   -2.4800   32.3390    8.1240 H   0  0  0  0  0  0  0  0  0  0  0  0
   -0.3000   25.6220    7.8640 H   0  0  0  0  0  0  0  0  0  0  0  0
    0.8710   26.2200    9.1610 H   0  0  0  0  0  0  0  0  0  0  0  0
   -2.1200   25.5900    9.7250 H   0  0  0  0  0  0  0  0  0  0  0  0
    0.3530   23.7250    9.9690 H   0  0  0  0  0  0  0  0  0  0  0  0
   -1.0690   23.5120    8.8670 H   0  0  0  0  0  0  0  0  0  0  0  0
   -1.2040   22.0610   10.9270 H   0  0  0  0  0  0  0  0  0  0  0  0
   -2.5820   23.2270   10.7940 H   0  0  0  0  0  0  0  0  0  0  0  0
   -0.0770   23.5230   12.5820 H   0  0  0  0  0  0  0  0  0  0  0  0
   -1.7660   23.1620   13.1220 H   0  0  0  0  0  0  0  0  0  0  0  0
   -1.1110   25.5840   13.4340 H   0  0  0  0  0  0  0  0  0  0  0  0
   -2.5470   25.3730   12.3590 H   0  0  0  0  0  0  0  0  0  0  0  0
   -1.0140   27.0510   11.3790 H   0  0  0  0  0  0  0  0  0  0  0  0
    0.3840   25.9110   11.5270 H   0  0  0  0  0  0  0  0  0  0  0  0
    5.8300   25.7300    4.2290 H   0  0  0  0  0  0  0  0  0  0  0  0
    4.5440   24.8290    8.2730 H   0  0  0  0  0  0  0  0  0  0  0  0
    3.1200   26.8470    8.2780 H   0  0  0  0  0  0  0  0  0  0  0  0
   -0.3020   32.7040    6.7310 H   0  0  0  0  0  0  0  0  0  0  0  0
    3.4280   29.3600    5.5010 H   0  0  0  0  0  0  0  0  0  0  0  0
    4.4310   27.7390    4.2300 H   0  0  0  0  0  0  0  0  0  0  0  0
    6.1950   23.9650    6.2140 C   0  0  0  0  0  0  0  0  0  0  0  0
    5.8280   22.8100    6.3820 O   0  0  0  0  0  0  0  0  0  0  0  0
    8.2140   23.5490    5.7220 H   0  0  0  0  0  0  0  0  0  0  0  0
    7.5410   24.2740    5.9860 N   0  0  0  0  0  0  0  0  0  0  0  0
    7.8080   25.2400    5.7150 H   0  0  0  0  0  0  0  0  0  0  0  0
  1 14  1  0  0  0  0
  1 21  2  0  0  0  0
  1 22  1  0  0  0  0
  2 18  2  0  0  0  0
  2 19  1  0  0  0  0
  2 25  1  0  0  0  0
  3  4  1  0  0  0  0
  3 16  1  0  0  0  0
  3 26  1  0  0  0  0
  3 27  1  0  0  0  0
  4  5  1  0  0  0  0
  4  9  1  0  0  0  0
  4 28  1  0  0  0  0
  5  6  1  0  0  0  0
  5 29  1  0  0  0  0
  5 30  1  0  0  0  0
  6  7  1  0  0  0  0
  6 31  1  0  0  0  0
  6 32  1  0  0  0  0
  7  8  1  0  0  0  0
  7 33  1  0  0  0  0
  7 34  1  0  0  0  0
  8  9  1  0  0  0  0
  8 35  1  0  0  0  0
  8 36  1  0  0  0  0
  9 37  1  0  0  0  0
  9 38  1  0  0  0  0
 10 11  1  0  0  0  0
 10 24  2  0  0  0  0
 10 39  1  0  0  0  0
 11 12  2  0  0  0  0
 11 45  1  0  0  0  0
 12 13  1  0  0  0  0
 12 40  1  0  0  0  0
 13 23  2  0  0  0  0
 13 41  1  0  0  0  0
 14 15  2  0  0  0  0
 15 16  1  0  0  0  0
 15 17  1  0  0  0  0
 17 18  1  0  0  0  0
 17 20  2  0  0  0  0
 19 20  1  0  0  0  0
 19 42  1  0  0  0  0
 20 21  1  0  0  0  0
 22 23  1  0  0  0  0
 22 43  1  0  0  0  0
 23 24  1  0  0  0  0
 24 44  1  0  0  0  0
 45 46  2  0  0  0  0
 45 48  1  0  0  0  0
 47 48  1  0  0  0  0
 48 49  1  0  0  0  0
M  END
$$$$
