18634-1
                    3D
 Schrodinger Suite 2022-3.
 46 47  0  0  1  0  0  0  0  0999 V2000
   25.7640    4.6790   30.7470 C   0  0  0  0  0  0  0  0  0  0  0  0
   24.4740    4.9070   30.2540 C   0  0  0  0  0  0  0  0  0  0  0  0
   23.3970    4.0370   30.5510 C   0  0  0  0  0  0  0  0  0  0  0  0
   23.6480    2.9140   31.3470 C   0  0  0  0  0  0  0  0  0  0  0  0
   24.9400    2.6940   31.8450 C   0  0  0  0  0  0  0  0  0  0  0  0
   26.0040    3.5710   31.5540 C   0  0  0  0  0  0  0  0  0  0  0  0
   22.0220    4.2940   30.0060 C   0  0  0  0  0  0  0  0  0  0  0  0
   21.2110    5.2710   30.8460 C   0  0  0  0  0  0  0  0  0  0  0  0
   21.7900    6.5590   30.9130 N   0  0  0  0  0  0  0  0  0  0  0  0
   21.2360    7.7120   31.5040 C   0  0  0  0  0  0  0  0  0  0  0  0
   20.1440    5.0050   31.3570 O   0  0  0  0  0  0  0  0  0  0  0  0
   21.9810    8.8420   31.1970 N   0  0  0  0  0  0  0  0  0  0  0  0
   21.5240   10.0340   31.6400 C   0  0  0  0  0  0  0  0  0  0  0  0
   20.3460   10.2060   32.4270 C   0  0  0  0  0  0  0  0  0  0  0  0
   19.6220    9.0160   32.7610 C   0  0  0  0  0  0  0  0  0  0  0  0
   20.0850    7.7610   32.2840 C   0  0  0  0  0  0  0  0  0  0  0  0
   25.3220    1.6470   32.6590 O   0  0  0  0  0  0  0  0  0  0  0  0
   24.3600    0.5880   32.8990 C   0  0  0  0  0  0  0  0  0  0  0  0
   24.1210    5.9660   29.4220 O   0  0  0  0  0  0  0  0  0  0  0  0
   25.0560    7.0740   29.3190 C   0  0  0  0  0  0  0  0  0  0  0  0
   18.4770    9.0690   33.5150 N   0  0  0  0  0  0  0  0  0  0  0  0
   19.9480   11.5090   32.7930 C   0  0  0  0  0  0  0  0  0  0  0  0
   22.1860   11.1660   31.3090 O   0  0  0  0  0  0  0  0  0  0  0  0
   23.4510   11.0660   30.5530 C   0  0  0  0  0  0  0  0  0  0  0  0
   23.1750   10.8730   29.0770 C   0  0  0  0  0  0  0  0  0  0  0  0
   19.6700   12.6050   33.0510 N   0  0  0  0  0  0  0  0  0  0  0  0
   26.5920    5.3500   30.5040 H   0  0  0  0  0  0  0  0  0  0  0  0
   22.8400    2.2170   31.5700 H   0  0  0  0  0  0  0  0  0  0  0  0
   19.5220    6.8550   32.5170 H   0  0  0  0  0  0  0  0  0  0  0  0
   21.4580    3.3290   29.9380 H   0  0  0  0  0  0  0  0  0  0  0  0
   22.1150    4.7270   28.9720 H   0  0  0  0  0  0  0  0  0  0  0  0
   22.7000    6.7160   30.4070 H   0  0  0  0  0  0  0  0  0  0  0  0
   24.0400    0.1340   31.9360 H   0  0  0  0  0  0  0  0  0  0  0  0
   23.5030    0.9760   33.4900 H   0  0  0  0  0  0  0  0  0  0  0  0
   24.9660   -0.1330   33.4980 H   0  0  0  0  0  0  0  0  0  0  0  0
   25.9360    6.7570   28.7200 H   0  0  0  0  0  0  0  0  0  0  0  0
   25.3470    7.4380   30.3290 H   0  0  0  0  0  0  0  0  0  0  0  0
   24.4450    7.8340   28.7810 H   0  0  0  0  0  0  0  0  0  0  0  0
   17.9800    8.2020   33.7940 H   0  0  0  0  0  0  0  0  0  0  0  0
   18.0910    9.9580   33.8340 H   0  0  0  0  0  0  0  0  0  0  0  0
   24.0760   10.2460   30.9750 H   0  0  0  0  0  0  0  0  0  0  0  0
   23.8750   12.0750   30.7750 H   0  0  0  0  0  0  0  0  0  0  0  0
   24.1410   10.9110   28.5150 H   0  0  0  0  0  0  0  0  0  0  0  0
   22.5140   11.6760   28.6800 H   0  0  0  0  0  0  0  0  0  0  0  0
   22.6970    9.8860   28.8800 H   0  0  0  0  0  0  0  0  0  0  0  0
   27.0060    3.3820   31.9480 H   0  0  0  0  0  0  0  0  0  0  0  0
  1  2  1  0  0  0  0
  1  6  2  0  0  0  0
  1 27  1  0  0  0  0
  2  3  2  0  0  0  0
  2 19  1  0  0  0  0
  3  4  1  0  0  0  0
  3  7  1  0  0  0  0
  4  5  2  0  0  0  0
  4 28  1  0  0  0  0
  5  6  1  0  0  0  0
  5 17  1  0  0  0  0
  6 46  1  0  0  0  0
  7  8  1  0  0  0  0
  7 30  1  0  0  0  0
  7 31  1  0  0  0  0
  8  9  1  0  0  0  0
  8 11  2  0  0  0  0
  9 10  1  0  0  0  0
  9 32  1  0  0  0  0
 10 12  1  0  0  0  0
 10 16  2  0  0  0  0
 12 13  2  0  0  0  0
 13 14  1  0  0  0  0
 13 23  1  0  0  0  0
 14 15  2  0  0  0  0
 14 22  1  0  0  0  0
 15 16  1  0  0  0  0
 15 21  1  0  0  0  0
 16 29  1  0  0  0  0
 17 18  1  0  0  0  0
 18 33  1  0  0  0  0
 18 34  1  0  0  0  0
 18 35  1  0  0  0  0
 19 20  1  0  0  0  0
 20 36  1  0  0  0  0
 20 37  1  0  0  0  0
 20 38  1  0  0  0  0
 21 39  1  0  0  0  0
 21 40  1  0  0  0  0
 22 26  3  0  0  0  0
 23 24  1  0  0  0  0
 24 25  1  0  0  0  0
 24 41  1  0  0  0  0
 24 42  1  0  0  0  0
 25 43  1  0  0  0  0
 25 44  1  0  0  0  0
 25 45  1  0  0  0  0
M  END
$$$$
