18634-1
 OpenBabel02232411163D
Structure written by MMmdl.
 46 47  0  0  0  0  0  0  0  0999 V2000
   23.2120   10.7700   29.0680 C   0  0  0  0  0  0  0  0  0  0  0  0
   23.4930   10.9730   30.5420 C   0  0  0  0  0  0  0  0  0  0  0  0
   22.2320   11.0850   31.3030 O   0  0  0  0  0  0  0  0  0  0  0  0
   21.5560    9.9600   31.6310 C   0  0  0  0  0  0  0  0  0  0  0  0
   21.9960    8.7640   31.1830 N   0  0  0  0  0  0  0  0  0  0  0  0
   21.2420    7.6420   31.4930 C   0  0  0  0  0  0  0  0  0  0  0  0
   20.0890    7.7030   32.2710 C   0  0  0  0  0  0  0  0  0  0  0  0
   19.6420    8.9630   32.7490 C   0  0  0  0  0  0  0  0  0  0  0  0
   18.4970    9.0320   33.5030 N   0  0  0  0  0  0  0  0  0  0  0  0
   20.3820   10.1450   32.4210 C   0  0  0  0  0  0  0  0  0  0  0  0
   20.0060   11.4510   32.7980 C   0  0  0  0  0  0  0  0  0  0  0  0
   19.7450   12.5490   33.0660 N   0  0  0  0  0  0  0  0  0  0  0  0
   21.7940    6.4820   30.9120 N   0  0  0  0  0  0  0  0  0  0  0  0
   21.2210    5.1910   30.8650 C   0  0  0  0  0  0  0  0  0  0  0  0
   20.1490    4.9320   31.3680 O   0  0  0  0  0  0  0  0  0  0  0  0
   22.0490    4.1990   30.0600 C   0  0  0  0  0  0  0  0  0  0  0  0
   23.4060    3.9520   30.6530 C   0  0  0  0  0  0  0  0  0  0  0  0
   24.5000    4.8140   30.3490 C   0  0  0  0  0  0  0  0  0  0  0  0
   24.1590    5.8450   29.4770 O   0  0  0  0  0  0  0  0  0  0  0  0
   25.1040    6.9420   29.3440 C   0  0  0  0  0  0  0  0  0  0  0  0
   25.7700    4.6000   30.8740 C   0  0  0  0  0  0  0  0  0  0  0  0
   25.9880    3.5190   31.7410 C   0  0  0  0  0  0  0  0  0  0  0  0
   24.9230    2.6730   32.0470 C   0  0  0  0  0  0  0  0  0  0  0  0
   23.6330    2.8720   31.4940 C   0  0  0  0  0  0  0  0  0  0  0  0
   24.9680    1.5790   32.8860 O   0  0  0  0  0  0  0  0  0  0  0  0
   26.2360    1.2740   33.5210 C   0  0  0  0  0  0  0  0  0  0  0  0
   22.7640    9.7680   28.8770 H   0  0  0  0  0  0  0  0  0  0  0  0
   22.5230   11.5520   28.6760 H   0  0  0  0  0  0  0  0  0  0  0  0
   24.1720   10.8380   28.4990 H   0  0  0  0  0  0  0  0  0  0  0  0
   23.9220   11.9820   30.7540 H   0  0  0  0  0  0  0  0  0  0  0  0
   24.1170   10.1550   30.9690 H   0  0  0  0  0  0  0  0  0  0  0  0
   19.5150    6.8040   32.5040 H   0  0  0  0  0  0  0  0  0  0  0  0
   18.1260    9.9260   33.8250 H   0  0  0  0  0  0  0  0  0  0  0  0
   17.9850    8.1720   33.7790 H   0  0  0  0  0  0  0  0  0  0  0  0
   22.7090    6.6330   30.4120 H   0  0  0  0  0  0  0  0  0  0  0  0
   21.4860    3.2330   29.9920 H   0  0  0  0  0  0  0  0  0  0  0  0
   22.1740    4.6140   29.0220 H   0  0  0  0  0  0  0  0  0  0  0  0
   25.9940    6.5930   28.7790 H   0  0  0  0  0  0  0  0  0  0  0  0
   24.5090    7.6800   28.7590 H   0  0  0  0  0  0  0  0  0  0  0  0
   25.3760    7.3480   30.3420 H   0  0  0  0  0  0  0  0  0  0  0  0
   26.6120    5.2500   30.6280 H   0  0  0  0  0  0  0  0  0  0  0  0
   26.9910    3.3710   32.1470 H   0  0  0  0  0  0  0  0  0  0  0  0
   22.8400    2.1620   31.7410 H   0  0  0  0  0  0  0  0  0  0  0  0
   27.0030    1.0300   32.7530 H   0  0  0  0  0  0  0  0  0  0  0  0
   26.5560    2.1180   34.1700 H   0  0  0  0  0  0  0  0  0  0  0  0
   25.9770    0.3740   34.1280 H   0  0  0  0  0  0  0  0  0  0  0  0
  1  2  1  0  0  0  0
  1 27  1  0  0  0  0
  1 28  1  0  0  0  0
  1 29  1  0  0  0  0
  2  3  1  0  0  0  0
  2 30  1  0  0  0  0
  2 31  1  0  0  0  0
  3  4  1  0  0  0  0
  4 10  2  0  0  0  0
  4  5  1  0  0  0  0
  5  6  2  0  0  0  0
  6  7  1  0  0  0  0
  6 13  1  0  0  0  0
  7  8  2  0  0  0  0
  7 32  1  0  0  0  0
  8  9  1  0  0  0  0
  8 10  1  0  0  0  0
  9 33  1  0  0  0  0
  9 34  1  0  0  0  0
 10 11  1  0  0  0  0
 11 12  3  0  0  0  0
 13 14  1  0  0  0  0
 13 35  1  0  0  0  0
 14 15  2  0  0  0  0
 14 16  1  0  0  0  0
 16 17  1  0  0  0  0
 16 36  1  0  0  0  0
 16 37  1  0  0  0  0
 17 24  2  0  0  0  0
 17 18  1  0  0  0  0
 18 19  1  0  0  0  0
 18 21  2  0  0  0  0
 19 20  1  0  0  0  0
 20 38  1  0  0  0  0
 20 39  1  0  0  0  0
 20 40  1  0  0  0  0
 21 22  1  0  0  0  0
 21 41  1  0  0  0  0
 22 23  2  0  0  0  0
 22 42  1  0  0  0  0
 23 24  1  0  0  0  0
 23 25  1  0  0  0  0
 24 43  1  0  0  0  0
 25 26  1  0  0  0  0
 26 44  1  0  0  0  0
 26 45  1  0  0  0  0
 26 46  1  0  0  0  0
M  END
$$$$
