CAT-13n
                    3D
 Schrodinger Suite 2022-3.
 44 47  0  0  1  0  0  0  0  0999 V2000
   11.7480   -2.5320    1.4020 C   0  0  0  0  0  0  0  0  0  0  0  0
   13.0290   -2.8740    0.7510 N   0  0  0  0  0  0  0  0  0  0  0  0
   14.2390   -2.7980    1.4460 C   0  0  0  0  0  0  0  0  0  0  0  0
   14.3850   -2.6980    2.7990 N   0  0  0  0  0  0  0  0  0  0  0  0
   15.2990   -2.9270    0.5620 N   0  3  0  0  0  0  0  0  0  0  0  0
   14.8180   -3.2160   -0.8340 C   0  0  1  0  0  0  0  0  0  0  0  0
   15.3340   -2.1500   -1.7790 C   0  0  0  0  0  0  0  0  0  0  0  0
   16.0060   -2.4450   -2.9670 C   0  0  0  0  0  0  0  0  0  0  0  0
   16.4170   -1.3940   -3.7990 C   0  0  0  0  0  0  0  0  0  0  0  0
   16.1630   -0.0650   -3.4590 C   0  0  0  0  0  0  0  0  0  0  0  0
   15.4910    0.2390   -2.2600 C   0  0  0  0  0  0  0  0  0  0  0  0
   15.2110    1.6380   -1.8620 C   0  0  0  0  0  0  0  0  0  0  0  0
   14.6340    2.5430   -2.7660 C   0  0  0  0  0  0  0  0  0  0  0  0
   14.3500    3.8540   -2.3680 C   0  0  0  0  0  0  0  0  0  0  0  0
   14.6190    4.2770   -1.0630 C   0  0  0  0  0  0  0  0  0  0  0  0
   15.1830    3.3620   -0.1710 C   0  0  0  0  0  0  0  0  0  0  0  0
   15.4580    3.8280    1.4650 Cl  0  0  0  0  0  0  0  0  0  0  0  0
   15.4960    2.0560   -0.5520 C   0  0  0  0  0  0  0  0  0  0  0  0
   15.0760   -0.8100   -1.4320 C   0  0  0  0  0  0  0  0  0  0  0  0
   15.1290   -4.6790   -1.1470 C   0  0  0  0  0  0  0  0  0  0  0  0
   14.0570   -5.4810   -1.4350 N   0  0  0  0  0  0  0  0  0  0  0  0
   14.3060   -6.8100   -1.5950 C   0  0  0  0  0  0  0  0  0  0  0  0
   15.6040   -7.3300   -1.4500 C   0  0  0  0  0  0  0  0  0  0  0  0
   16.6480   -6.4380   -1.1740 C   0  0  0  0  0  0  0  0  0  0  0  0
   16.4180   -5.1010   -1.0310 N   0  0  0  0  0  0  0  0  0  0  0  0
   13.2570   -3.0380   -0.6960 C   0  0  0  0  0  0  0  0  0  0  0  0
   12.3870   -3.0050   -1.4990 O   0  0  0  0  0  0  0  0  0  0  0  0
   10.8950   -2.8070    0.7270 H   0  0  0  0  0  0  0  0  0  0  0  0
   11.6440   -3.0990    2.3670 H   0  0  0  0  0  0  0  0  0  0  0  0
   11.7310   -1.4310    1.6150 H   0  0  0  0  0  0  0  0  0  0  0  0
   15.3580   -2.5690    3.1910 H   0  0  0  0  0  0  0  0  0  0  0  0
   16.2760   -3.1390    0.8970 H   0  0  0  0  0  0  0  0  0  0  0  0
   16.2200   -3.4760   -3.2550 H   0  0  0  0  0  0  0  0  0  0  0  0
   16.9520   -1.6160   -4.7280 H   0  0  0  0  0  0  0  0  0  0  0  0
   16.4930    0.7400   -4.1250 H   0  0  0  0  0  0  0  0  0  0  0  0
   14.3890    2.2170   -3.7810 H   0  0  0  0  0  0  0  0  0  0  0  0
   13.9000    4.5510   -3.0860 H   0  0  0  0  0  0  0  0  0  0  0  0
   14.3770    5.2960   -0.7480 H   0  0  0  0  0  0  0  0  0  0  0  0
   15.9400    1.3550    0.1550 H   0  0  0  0  0  0  0  0  0  0  0  0
   14.5500   -0.5880   -0.5050 H   0  0  0  0  0  0  0  0  0  0  0  0
   13.4440   -7.4640   -1.8200 H   0  0  0  0  0  0  0  0  0  0  0  0
   15.7820   -8.4090   -1.5290 H   0  0  0  0  0  0  0  0  0  0  0  0
   17.6900   -6.7740   -1.0350 H   0  0  0  0  0  0  0  0  0  0  0  0
   13.6600   -2.2080    3.3820 H   0  0  0  0  0  0  0  0  0  0  0  0
  1  2  1  0  0  0  0
  1 28  1  0  0  0  0
  1 29  1  0  0  0  0
  1 30  1  0  0  0  0
  2  3  1  0  0  0  0
  2 26  1  0  0  0  0
  3  4  1  0  0  0  0
  3  5  2  0  0  0  0
  4 31  1  0  0  0  0
  4 44  1  0  0  0  0
  5  6  1  0  0  0  0
  5 32  1  0  0  0  0
  6  7  1  0  0  0  0
  6 20  1  0  0  0  0
  6 26  1  0  0  0  0
  7  8  2  0  0  0  0
  7 19  1  0  0  0  0
  8  9  1  0  0  0  0
  8 33  1  0  0  0  0
  9 10  2  0  0  0  0
  9 34  1  0  0  0  0
 10 11  1  0  0  0  0
 10 35  1  0  0  0  0
 11 12  1  0  0  0  0
 11 19  2  0  0  0  0
 12 13  2  0  0  0  0
 12 18  1  0  0  0  0
 13 14  1  0  0  0  0
 13 36  1  0  0  0  0
 14 15  2  0  0  0  0
 14 37  1  0  0  0  0
 15 16  1  0  0  0  0
 15 38  1  0  0  0  0
 16 17  1  0  0  0  0
 16 18  2  0  0  0  0
 18 39  1  0  0  0  0
 19 40  1  0  0  0  0
 20 21  2  0  0  0  0
 20 25  1  0  0  0  0
 21 22  1  0  0  0  0
 22 23  2  0  0  0  0
 22 41  1  0  0  0  0
 23 24  1  0  0  0  0
 23 42  1  0  0  0  0
 24 25  2  0  0  0  0
 24 43  1  0  0  0  0
 26 27  2  0  0  0  0
M  CHG  1   5   1
M  END
$$$$
