29 flip
                    3D
 Schrodinger Suite 2022-3.
 41 43  0  0  1  0  0  0  0  0999 V2000
    3.2020  -48.0460    7.2220 O   0  0  0  0  0  0  0  0  0  0  0  0
    2.8330  -49.0620    6.6190 C   0  0  0  0  0  0  0  0  0  0  0  0
    3.5680  -49.9150    6.0800 O   0  5  0  0  0  0  0  0  0  0  0  0
    1.3250  -49.3650    6.5210 C   0  0  0  0  0  0  0  0  0  0  0  0
   -0.5090  -50.7360    6.6110 C   0  0  0  0  0  0  0  0  0  0  0  0
   -1.4110  -51.8020    6.7770 C   0  0  0  0  0  0  0  0  0  0  0  0
   -2.7390  -51.5720    6.4520 C   0  0  0  0  0  0  0  0  0  0  0  0
   -3.1700  -50.3130    5.9700 C   0  0  0  0  0  0  0  0  0  0  0  0
   -2.2850  -49.2560    5.8080 C   0  0  0  0  0  0  0  0  0  0  0  0
   -0.9320  -49.4440    6.1340 C   0  0  0  0  0  0  0  0  0  0  0  0
    0.2430  -48.5970    6.1040 C   0  0  0  0  0  0  0  0  0  0  0  0
    0.2110  -47.1720    5.6820 C   0  0  0  0  0  0  0  0  0  0  0  0
    0.0300  -46.1930    6.8580 C   0  0  0  0  0  0  0  0  0  0  0  0
   -1.3070  -46.3320    7.5860 C   0  0  0  0  0  0  0  0  0  0  0  0
   -2.2860  -45.8740    6.5770 O   0  0  0  0  0  0  0  0  0  0  0  0
   -3.5230  -45.4270    6.8780 C   0  0  0  0  0  0  0  0  0  0  0  0
   -4.3890  -45.7870    7.9340 C   0  0  0  0  0  0  0  0  0  0  0  0
   -5.6210  -45.0930    8.0410 C   0  0  0  0  0  0  0  0  0  0  0  0
   -6.0250  -44.1710    7.0940 C   0  0  0  0  0  0  0  0  0  0  0  0
   -5.1970  -43.8960    5.9850 C   0  0  0  0  0  0  0  0  0  0  0  0
   -3.9640  -44.5030    5.8810 C   0  0  0  0  0  0  0  0  0  0  0  0
   -1.0840  -52.7750    7.1450 H   0  0  0  0  0  0  0  0  0  0  0  0
   -3.4730  -52.3710    6.5650 H   0  0  0  0  0  0  0  0  0  0  0  0
   -4.2240  -50.1800    5.7230 H   0  0  0  0  0  0  0  0  0  0  0  0
   -2.6420  -48.2950    5.4350 H   0  0  0  0  0  0  0  0  0  0  0  0
   -0.6510  -47.0290    4.9780 H   0  0  0  0  0  0  0  0  0  0  0  0
    1.1530  -46.8990    5.1470 H   0  0  0  0  0  0  0  0  0  0  0  0
    0.1120  -45.1500    6.4710 H   0  0  0  0  0  0  0  0  0  0  0  0
    0.8380  -46.3720    7.6110 H   0  0  0  0  0  0  0  0  0  0  0  0
   -1.3800  -45.6490    8.4550 H   0  0  0  0  0  0  0  0  0  0  0  0
   -1.5460  -47.3910    7.8070 H   0  0  0  0  0  0  0  0  0  0  0  0
   -3.3160  -44.2930    5.0320 H   0  0  0  0  0  0  0  0  0  0  0  0
    0.8730  -50.6600    6.8480 N   0  0  0  0  0  0  0  0  0  0  0  0
    1.4290  -51.4470    7.1600 H   0  0  0  0  0  0  0  0  0  0  0  0
   -5.5400  -43.1970    5.2200 H   0  0  0  0  0  0  0  0  0  0  0  0
   -6.9880  -43.6690    7.1830 H   0  0  0  0  0  0  0  0  0  0  0  0
   -6.2930  -45.2900    8.8840 H   0  0  0  0  0  0  0  0  0  0  0  0
   -5.2860  -47.3510    9.5190 F   0  0  0  0  0  0  0  0  0  0  0  0
   -4.1820  -46.9280    8.8670 C   0  0  0  0  0  0  0  0  0  0  0  0
   -3.7330  -48.0610    8.3050 F   0  0  0  0  0  0  0  0  0  0  0  0
   -3.3230  -46.7090    9.8790 F   0  0  0  0  0  0  0  0  0  0  0  0
  1  2  2  0  0  0  0
  2  3  1  0  0  0  0
  2  4  1  0  0  0  0
  4 11  2  0  0  0  0
  4 33  1  0  0  0  0
  5  6  1  0  0  0  0
  5 10  2  0  0  0  0
  5 33  1  0  0  0  0
  6  7  2  0  0  0  0
  6 22  1  0  0  0  0
  7  8  1  0  0  0  0
  7 23  1  0  0  0  0
  8  9  2  0  0  0  0
  8 24  1  0  0  0  0
  9 10  1  0  0  0  0
  9 25  1  0  0  0  0
 10 11  1  0  0  0  0
 11 12  1  0  0  0  0
 12 26  1  0  0  0  0
 12 27  1  0  0  0  0
 12 13  1  0  0  0  0
 13 14  1  0  0  0  0
 13 28  1  0  0  0  0
 13 29  1  0  0  0  0
 14 15  1  0  0  0  0
 14 30  1  0  0  0  0
 14 31  1  0  0  0  0
 15 16  1  0  0  0  0
 16 17  1  0  0  0  0
 16 21  2  0  0  0  0
 17 18  2  0  0  0  0
 17 39  1  0  0  0  0
 18 19  1  0  0  0  0
 18 37  1  0  0  0  0
 19 20  2  0  0  0  0
 19 36  1  0  0  0  0
 20 21  1  0  0  0  0
 20 35  1  0  0  0  0
 21 32  1  0  0  0  0
 33 34  1  0  0  0  0
 38 39  1  0  0  0  0
 39 40  1  0  0  0  0
 39 41  1  0  0  0  0
M  CHG  1   3  -1
M  END
$$$$
