31
                    3D
 Schrodinger Suite 2022-3.
 41 43  0  0  1  0  0  0  0  0999 V2000
    3.4320  -48.3970    7.1810 O   0  0  0  0  0  0  0  0  0  0  0  0
    3.0210  -49.3070    6.4490 C   0  0  0  0  0  0  0  0  0  0  0  0
    3.7090  -50.0740    5.7490 O   0  5  0  0  0  0  0  0  0  0  0  0
    1.5020  -49.5720    6.3990 C   0  0  0  0  0  0  0  0  0  0  0  0
   -0.3770  -50.8690    6.5710 C   0  0  0  0  0  0  0  0  0  0  0  0
   -1.3100  -51.8980    6.7880 C   0  0  0  0  0  0  0  0  0  0  0  0
   -2.6420  -51.6190    6.5180 C   0  0  0  0  0  0  0  0  0  0  0  0
   -3.0440  -50.3480    6.0420 C   0  0  0  0  0  0  0  0  0  0  0  0
   -2.1260  -49.3280    5.8290 C   0  0  0  0  0  0  0  0  0  0  0  0
   -0.7670  -49.5660    6.0930 C   0  0  0  0  0  0  0  0  0  0  0  0
    0.4370  -48.7680    6.0080 C   0  0  0  0  0  0  0  0  0  0  0  0
    0.4570  -47.3440    5.5800 C   0  0  0  0  0  0  0  0  0  0  0  0
    0.4240  -46.3670    6.7710 C   0  0  0  0  0  0  0  0  0  0  0  0
   -0.8840  -46.4090    7.5560 C   0  0  0  0  0  0  0  0  0  0  0  0
   -1.8510  -45.7720    6.6380 O   0  0  0  0  0  0  0  0  0  0  0  0
   -3.1180  -45.5580    7.0780 C   0  0  0  0  0  0  0  0  0  0  0  0
   -3.9000  -44.8170    6.1560 C   0  0  0  0  0  0  0  0  0  0  0  0
   -5.2180  -44.5290    6.4880 C   0  0  0  0  0  0  0  0  0  0  0  0
   -5.7710  -44.9390    7.7120 C   0  0  0  0  0  0  0  0  0  0  0  0
   -4.9860  -45.6770    8.6000 C   0  0  0  0  0  0  0  0  0  0  0  0
   -3.6620  -46.0010    8.2950 C   0  0  0  0  0  0  0  0  0  0  0  0
   -1.0060  -52.8770    7.1580 H   0  0  0  0  0  0  0  0  0  0  0  0
   -3.4010  -52.3860    6.6750 H   0  0  0  0  0  0  0  0  0  0  0  0
   -4.1030  -50.1780    5.8440 H   0  0  0  0  0  0  0  0  0  0  0  0
   -2.4650  -48.3570    5.4670 H   0  0  0  0  0  0  0  0  0  0  0  0
   -0.4430  -47.1440    4.9420 H   0  0  0  0  0  0  0  0  0  0  0  0
    1.3710  -47.1250    4.9770 H   0  0  0  0  0  0  0  0  0  0  0  0
    0.5610  -45.3260    6.3910 H   0  0  0  0  0  0  0  0  0  0  0  0
    1.2530  -46.6220    7.4760 H   0  0  0  0  0  0  0  0  0  0  0  0
   -0.8470  -45.7790    8.4700 H   0  0  0  0  0  0  0  0  0  0  0  0
   -1.2490  -47.4410    7.7440 H   0  0  0  0  0  0  0  0  0  0  0  0
   -3.4510  -44.5150    5.2090 H   0  0  0  0  0  0  0  0  0  0  0  0
   -3.0960  -46.6050    9.0010 H   0  0  0  0  0  0  0  0  0  0  0  0
    1.0160  -50.8460    6.7530 N   0  0  0  0  0  0  0  0  0  0  0  0
    1.5500  -51.6460    7.0720 H   0  0  0  0  0  0  0  0  0  0  0  0
   -5.4240  -46.0160    9.5430 H   0  0  0  0  0  0  0  0  0  0  0  0
   -6.8050  -44.7090    7.9680 H   0  0  0  0  0  0  0  0  0  0  0  0
   -6.8030  -42.7800    5.9870 F   0  0  0  0  0  0  0  0  0  0  0  0
   -6.1040  -43.8200    5.4980 C   0  0  0  0  0  0  0  0  0  0  0  0
   -5.4860  -43.2940    4.4280 F   0  0  0  0  0  0  0  0  0  0  0  0
   -7.0550  -44.6010    4.9530 F   0  0  0  0  0  0  0  0  0  0  0  0
  1  2  2  0  0  0  0
  2  3  1  0  0  0  0
  2  4  1  0  0  0  0
  4 11  2  0  0  0  0
  4 34  1  0  0  0  0
  5  6  1  0  0  0  0
  5 10  2  0  0  0  0
  5 34  1  0  0  0  0
  6  7  2  0  0  0  0
  6 22  1  0  0  0  0
  7  8  1  0  0  0  0
  7 23  1  0  0  0  0
  8  9  2  0  0  0  0
  8 24  1  0  0  0  0
  9 10  1  0  0  0  0
  9 25  1  0  0  0  0
 10 11  1  0  0  0  0
 11 12  1  0  0  0  0
 12 26  1  0  0  0  0
 12 27  1  0  0  0  0
 12 13  1  0  0  0  0
 13 14  1  0  0  0  0
 13 28  1  0  0  0  0
 13 29  1  0  0  0  0
 14 15  1  0  0  0  0
 14 30  1  0  0  0  0
 14 31  1  0  0  0  0
 15 16  1  0  0  0  0
 16 17  1  0  0  0  0
 16 21  2  0  0  0  0
 17 18  2  0  0  0  0
 17 32  1  0  0  0  0
 18 19  1  0  0  0  0
 18 39  1  0  0  0  0
 19 20  2  0  0  0  0
 19 37  1  0  0  0  0
 20 21  1  0  0  0  0
 20 36  1  0  0  0  0
 21 33  1  0  0  0  0
 34 35  1  0  0  0  0
 38 39  1  0  0  0  0
 39 40  1  0  0  0  0
 39 41  1  0  0  0  0
M  CHG  1   3  -1
M  END
$$$$
