p38a_2n
 OpenBabel02232411163D
Structure written by MMmdl.
 53 56  0  0  0  0  0  0  0  0999 V2000
   38.3660   36.6600   16.9220 C   0  0  0  0  0  0  0  0  0  0  0  0
   34.6330   34.7750   20.7660 C   0  0  0  0  0  0  0  0  0  0  0  0
   37.5660   36.1160   17.9210 C   0  0  0  0  0  0  0  0  0  0  0  0
   33.9780   38.6190   23.6350 C   0  0  0  0  0  0  0  0  0  0  0  0
   34.6180   37.6340   21.1420 C   0  0  0  0  0  0  0  0  0  0  0  0
   35.0470   37.0900   19.8840 C   0  0  0  0  0  0  0  0  0  0  0  0
   37.7500   36.8710   15.6810 C   0  0  0  0  0  0  0  0  0  0  0  0
   36.4160   36.5570   15.4150 C   0  0  0  0  0  0  0  0  0  0  0  0
   35.6410   35.9810   16.4260 C   0  0  0  0  0  0  0  0  0  0  0  0
   34.2400   36.7600   22.2060 C   0  0  0  0  0  0  0  0  0  0  0  0
   34.5670   39.0320   21.4020 C   0  0  0  0  0  0  0  0  0  0  0  0
   35.0830   35.7460   19.7370 C   0  0  0  0  0  0  0  0  0  0  0  0
   36.2260   35.7480   17.6720 C   0  0  0  0  0  0  0  0  0  0  0  0
   38.0530   35.9480   19.1440 F   0  0  0  0  0  0  0  0  0  0  0  0
   35.4990   35.0220   18.6210 O   0  0  0  0  0  0  0  0  0  0  0  0
   34.2490   39.5400   22.6010 N   0  0  0  0  0  0  0  0  0  0  0  0
   34.6170   33.5700   20.6210 O   0  0  0  0  0  0  0  0  0  0  0  0
   34.2060   35.3660   22.0040 N   0  0  0  0  0  0  0  0  0  0  0  0
   33.9260   37.2490   23.4470 N   0  0  0  0  0  0  0  0  0  0  0  0
   33.8000   39.1170   24.9030 N   0  0  0  0  0  0  0  0  0  0  0  0
   39.4050   36.9440   17.1100 H   0  0  0  0  0  0  0  0  0  0  0  0
   35.3450   37.7820   19.0950 H   0  0  0  0  0  0  0  0  0  0  0  0
   35.9660   36.7720   14.4460 H   0  0  0  0  0  0  0  0  0  0  0  0
   34.5910   35.7330   16.2390 H   0  0  0  0  0  0  0  0  0  0  0  0
   34.7980   39.7540   20.5990 H   0  0  0  0  0  0  0  0  0  0  0  0
   33.6620   40.1350   25.0440 H   0  0  0  0  0  0  0  0  0  0  0  0
   38.4600   37.4420   14.7130 F   0  0  0  0  0  0  0  0  0  0  0  0
   31.2580   38.7640   26.8730 C   0  0  0  0  0  0  0  0  0  0  0  0
   32.1640   37.7210   26.2220 C   0  0  0  0  0  0  0  0  0  0  0  0
   33.6210   38.2070   26.0820 C   0  0  0  0  0  0  0  0  0  0  0  0
   34.1220   38.9210   27.3550 C   0  0  0  0  0  0  0  0  0  0  0  0
   33.0800   39.8580   27.9760 C   0  0  0  0  0  0  0  0  0  0  0  0
   31.8040   39.2050   28.1370 O   0  0  0  0  0  0  0  0  0  0  0  0
   30.2830   38.3270   27.1820 H   0  0  0  0  0  0  0  0  0  0  0  0
   31.1270   39.6510   26.2110 H   0  0  0  0  0  0  0  0  0  0  0  0
   31.7520   37.4410   25.2200 H   0  0  0  0  0  0  0  0  0  0  0  0
   32.1770   36.7910   26.8460 H   0  0  0  0  0  0  0  0  0  0  0  0
   34.2780   37.3020   25.9100 H   0  0  0  0  0  0  0  0  0  0  0  0
   34.3970   38.1270   28.0960 H   0  0  0  0  0  0  0  0  0  0  0  0
   35.0500   39.5040   27.1320 H   0  0  0  0  0  0  0  0  0  0  0  0
   33.3500   40.1300   29.0220 H   0  0  0  0  0  0  0  0  0  0  0  0
   32.9350   40.7620   27.3460 H   0  0  0  0  0  0  0  0  0  0  0  0
   33.6610   34.4520   23.0640 C   0  0  0  0  0  0  0  0  0  0  0  0
   34.2580   33.5000   23.0390 H   0  0  0  0  0  0  0  0  0  0  0  0
   33.8000   34.9340   24.0750 H   0  0  0  0  0  0  0  0  0  0  0  0
   32.1660   34.1530   22.8630 C   0  0  0  0  0  0  0  0  0  0  0  0
   31.8350   33.5100   23.7220 H   0  0  0  0  0  0  0  0  0  0  0  0
   31.5800   35.1030   22.9200 H   0  0  0  0  0  0  0  0  0  0  0  0
   31.8610   33.4270   21.5510 C   0  0  0  0  0  0  0  0  0  0  0  0
   31.7560   34.1340   20.7020 H   0  0  0  0  0  0  0  0  0  0  0  0
   32.6140   32.6370   21.3330 H   0  0  0  0  0  0  0  0  0  0  0  0
   30.5940   32.7450   21.7140 O   0  0  0  0  0  0  0  0  0  0  0  0
   30.1740   32.7010   20.7720 H   0  0  0  0  0  0  0  0  0  0  0  0
  1  3  2  0  0  0  0
  1  7  1  0  0  0  0
  1 21  1  0  0  0  0
  2 12  1  0  0  0  0
  2 17  2  0  0  0  0
  2 18  1  0  0  0  0
  3 13  1  0  0  0  0
  3 14  1  0  0  0  0
  4 16  2  0  0  0  0
  4 19  1  0  0  0  0
  4 20  1  0  0  0  0
  5  6  1  0  0  0  0
  5 10  1  0  0  0  0
  5 11  2  0  0  0  0
  6 12  2  0  0  0  0
  6 22  1  0  0  0  0
  7  8  2  0  0  0  0
  7 27  1  0  0  0  0
  8  9  1  0  0  0  0
  8 23  1  0  0  0  0
  9 13  2  0  0  0  0
  9 24  1  0  0  0  0
 10 18  1  0  0  0  0
 10 19  2  0  0  0  0
 11 16  1  0  0  0  0
 11 25  1  0  0  0  0
 12 15  1  0  0  0  0
 13 15  1  0  0  0  0
 18 43  1  0  0  0  0
 20 26  1  0  0  0  0
 20 30  1  0  0  0  0
 28 29  1  0  0  0  0
 28 33  1  0  0  0  0
 28 34  1  0  0  0  0
 28 35  1  0  0  0  0
 29 30  1  0  0  0  0
 29 36  1  0  0  0  0
 29 37  1  0  0  0  0
 30 31  1  0  0  0  0
 30 38  1  0  0  0  0
 31 32  1  0  0  0  0
 31 39  1  0  0  0  0
 31 40  1  0  0  0  0
 32 33  1  0  0  0  0
 32 41  1  0  0  0  0
 32 42  1  0  0  0  0
 43 44  1  0  0  0  0
 43 45  1  0  0  0  0
 43 46  1  0  0  0  0
 46 47  1  0  0  0  0
 46 48  1  0  0  0  0
 46 49  1  0  0  0  0
 49 50  1  0  0  0  0
 49 51  1  0  0  0  0
 49 52  1  0  0  0  0
 52 53  1  0  0  0  0
M  END
$$$$
