65
                    3D
 Schrodinger Suite 2022-3.
 43 45  0  0  1  0  0  0  0  0999 V2000
    3.5770  -48.4860    7.2400 O   0  0  0  0  0  0  0  0  0  0  0  0
    3.1300  -49.2720    6.3950 C   0  0  0  0  0  0  0  0  0  0  0  0
    3.7670  -49.9450    5.5680 O   0  5  0  0  0  0  0  0  0  0  0  0
    1.6220  -49.5610    6.4100 C   0  0  0  0  0  0  0  0  0  0  0  0
    1.2200  -51.1510    7.0140 S   0  0  0  0  0  0  0  0  0  0  0  0
   -0.4840  -50.9320    6.7360 C   0  0  0  0  0  0  0  0  0  0  0  0
   -1.5450  -51.8000    6.9710 C   0  0  0  0  0  0  0  0  0  0  0  0
   -2.8410  -51.4560    6.5990 C   0  0  0  0  0  0  0  0  0  0  0  0
   -3.0690  -50.1990    6.0120 C   0  0  0  0  0  0  0  0  0  0  0  0
   -2.0290  -49.2980    5.8000 C   0  0  0  0  0  0  0  0  0  0  0  0
   -0.7150  -49.6490    6.1610 C   0  0  0  0  0  0  0  0  0  0  0  0
    0.5190  -48.8670    6.0250 C   0  0  0  0  0  0  0  0  0  0  0  0
    0.5030  -47.4530    5.5370 C   0  0  0  0  0  0  0  0  0  0  0  0
    0.4900  -46.4390    6.6960 C   0  0  0  0  0  0  0  0  0  0  0  0
   -0.8360  -46.4030    7.4530 C   0  0  0  0  0  0  0  0  0  0  0  0
   -1.7370  -45.7310    6.4980 O   0  0  0  0  0  0  0  0  0  0  0  0
   -3.0120  -45.4560    6.8800 C   0  0  0  0  0  0  0  0  0  0  0  0
   -3.5920  -45.8230    8.1040 C   0  0  0  0  0  0  0  0  0  0  0  0
   -4.9210  -45.4640    8.3610 C   0  0  0  0  0  0  0  0  0  0  0  0
   -5.5740  -45.8070    9.6590 C   0  0  0  0  0  0  0  0  0  0  0  0
   -5.6390  -44.7750    7.3710 C   0  0  0  0  0  0  0  0  0  0  0  0
   -7.3020  -44.4180    7.6540 Cl  0  0  0  0  0  0  0  0  0  0  0  0
   -5.0680  -44.4070    6.1380 C   0  0  0  0  0  0  0  0  0  0  0  0
   -5.8890  -43.7410    5.0850 C   0  0  0  0  0  0  0  0  0  0  0  0
   -3.7360  -44.7390    5.9020 C   0  0  0  0  0  0  0  0  0  0  0  0
   -1.3060  -53.3310    7.7500 Cl  0  0  0  0  0  0  0  0  0  0  0  0
   -3.6720  -52.1410    6.7570 H   0  0  0  0  0  0  0  0  0  0  0  0
   -4.0890  -49.9360    5.7240 H   0  0  0  0  0  0  0  0  0  0  0  0
   -2.2560  -48.3270    5.3540 H   0  0  0  0  0  0  0  0  0  0  0  0
   -0.4090  -47.2750    4.9080 H   0  0  0  0  0  0  0  0  0  0  0  0
    1.4000  -47.2480    4.9040 H   0  0  0  0  0  0  0  0  0  0  0  0
    0.6640  -45.4150    6.2810 H   0  0  0  0  0  0  0  0  0  0  0  0
    1.3010  -46.6890    7.4220 H   0  0  0  0  0  0  0  0  0  0  0  0
   -0.7890  -45.7630    8.3600 H   0  0  0  0  0  0  0  0  0  0  0  0
   -1.2620  -47.4110    7.6480 H   0  0  0  0  0  0  0  0  0  0  0  0
   -3.0490  -46.4010    8.8460 H   0  0  0  0  0  0  0  0  0  0  0  0
   -5.9510  -44.8830   10.1600 H   0  0  0  0  0  0  0  0  0  0  0  0
   -6.4520  -46.4740    9.4790 H   0  0  0  0  0  0  0  0  0  0  0  0
   -4.8720  -46.3350   10.3430 H   0  0  0  0  0  0  0  0  0  0  0  0
   -5.2460  -43.3770    4.2500 H   0  0  0  0  0  0  0  0  0  0  0  0
   -6.6230  -44.4840    4.6810 H   0  0  0  0  0  0  0  0  0  0  0  0
   -6.4620  -42.8800    5.4970 H   0  0  0  0  0  0  0  0  0  0  0  0
   -3.2580  -44.4760    4.9640 H   0  0  0  0  0  0  0  0  0  0  0  0
  1  2  2  0  0  0  0
  2  3  1  0  0  0  0
  2  4  1  0  0  0  0
  4  5  1  0  0  0  0
  4 12  2  0  0  0  0
  5  6  1  0  0  0  0
  6  7  1  0  0  0  0
  6 11  2  0  0  0  0
  7  8  2  0  0  0  0
  7 26  1  0  0  0  0
  8  9  1  0  0  0  0
  8 27  1  0  0  0  0
  9 10  2  0  0  0  0
  9 28  1  0  0  0  0
 10 11  1  0  0  0  0
 10 29  1  0  0  0  0
 11 12  1  0  0  0  0
 12 13  1  0  0  0  0
 13 30  1  0  0  0  0
 13 31  1  0  0  0  0
 13 14  1  0  0  0  0
 14 15  1  0  0  0  0
 14 32  1  0  0  0  0
 14 33  1  0  0  0  0
 15 16  1  0  0  0  0
 15 34  1  0  0  0  0
 15 35  1  0  0  0  0
 16 17  1  0  0  0  0
 17 18  1  0  0  0  0
 17 25  2  0  0  0  0
 18 19  2  0  0  0  0
 18 36  1  0  0  0  0
 19 20  1  0  0  0  0
 19 21  1  0  0  0  0
 20 37  1  0  0  0  0
 20 38  1  0  0  0  0
 20 39  1  0  0  0  0
 21 22  1  0  0  0  0
 21 23  2  0  0  0  0
 23 24  1  0  0  0  0
 23 25  1  0  0  0  0
 24 40  1  0  0  0  0
 24 41  1  0  0  0  0
 24 42  1  0  0  0  0
 25 43  1  0  0  0  0
M  CHG  1   3  -1
M  END
$$$$
