46
 OpenBabel02232411163D
Structure written by MMmdl.
 45 48  0  0  0  0  0  0  0  0999 V2000
    3.5280  -48.3910    7.1520 O   0  0  0  0  0  0  0  0  0  0  0  0
    3.1370  -49.3930    6.5380 C   0  0  0  0  0  0  0  0  0  0  0  0
    3.8490  -50.2730    6.0150 O   0  5  0  0  0  0  0  0  0  0  0  0
    1.6200  -49.6200    6.4030 C   0  0  0  0  0  0  0  0  0  0  0  0
   -0.3110  -50.8430    6.5400 C   0  0  0  0  0  0  0  0  0  0  0  0
   -1.2940  -51.8210    6.7710 C   0  0  0  0  0  0  0  0  0  0  0  0
   -2.5990  -51.5090    6.4230 C   0  0  0  0  0  0  0  0  0  0  0  0
   -2.9280  -50.2550    5.8540 C   0  0  0  0  0  0  0  0  0  0  0  0
   -1.9620  -49.2850    5.6250 C   0  0  0  0  0  0  0  0  0  0  0  0
   -0.6280  -49.5570    5.9700 C   0  0  0  0  0  0  0  0  0  0  0  0
    0.6080  -48.8050    5.9080 C   0  0  0  0  0  0  0  0  0  0  0  0
    0.6990  -47.4040    5.4170 C   0  0  0  0  0  0  0  0  0  0  0  0
    0.6490  -46.3720    6.5580 C   0  0  0  0  0  0  0  0  0  0  0  0
   -0.6620  -46.3980    7.3390 C   0  0  0  0  0  0  0  0  0  0  0  0
   -1.6560  -45.8390    6.4040 O   0  0  0  0  0  0  0  0  0  0  0  0
   -2.9140  -45.6110    6.8850 C   0  0  0  0  0  0  0  0  0  0  0  0
   -5.0170  -44.4760    6.4540 C   0  0  0  0  0  0  0  0  0  0  0  0
   -3.7220  -44.8170    6.0460 C   0  0  0  0  0  0  0  0  0  0  0  0
   -1.0480  -52.7870    7.2120 H   0  0  0  0  0  0  0  0  0  0  0  0
   -3.3960  -52.2350    6.5900 H   0  0  0  0  0  0  0  0  0  0  0  0
   -3.9700  -50.0580    5.5970 H   0  0  0  0  0  0  0  0  0  0  0  0
   -2.2450  -48.3250    5.1910 H   0  0  0  0  0  0  0  0  0  0  0  0
   -0.1690  -47.2000    4.7370 H   0  0  0  0  0  0  0  0  0  0  0  0
    1.6430  -47.2440    4.8450 H   0  0  0  0  0  0  0  0  0  0  0  0
    0.7720  -45.3510    6.1280 H   0  0  0  0  0  0  0  0  0  0  0  0
    1.4760  -46.5790    7.2800 H   0  0  0  0  0  0  0  0  0  0  0  0
   -0.6320  -45.7220    8.2200 H   0  0  0  0  0  0  0  0  0  0  0  0
   -0.9950  -47.4270    7.5880 H   0  0  0  0  0  0  0  0  0  0  0  0
   -3.3460  -44.4680    5.0900 H   0  0  0  0  0  0  0  0  0  0  0  0
   -3.3890  -46.1180    8.1140 C   0  0  0  0  0  0  0  0  0  0  0  0
   -5.6470  -43.8550    5.8180 H   0  0  0  0  0  0  0  0  0  0  0  0
   -2.7980  -46.7610    8.7560 H   0  0  0  0  0  0  0  0  0  0  0  0
    1.0690  -50.8560    6.7960 N   0  0  0  0  0  0  0  0  0  0  0  0
   -6.6380  -45.2380    9.7810 C   0  0  0  0  0  0  0  0  0  0  0  0
   -5.4030  -46.1740    9.7430 C   0  0  0  0  0  0  0  0  0  0  0  0
   -4.6800  -45.7750    8.4850 C   0  0  0  0  0  0  0  0  0  0  0  0
   -5.4890  -44.9430    7.6760 C   0  0  0  0  0  0  0  0  0  0  0  0
   -6.8140  -44.6850    8.3380 C   0  0  0  0  0  0  0  0  0  0  0  0
   -7.0600  -43.6050    8.3420 H   0  0  0  0  0  0  0  0  0  0  0  0
   -7.6260  -45.2370    7.8090 H   0  0  0  0  0  0  0  0  0  0  0  0
   -7.5400  -45.7870   10.1100 H   0  0  0  0  0  0  0  0  0  0  0  0
   -6.4510  -44.4000   10.4860 H   0  0  0  0  0  0  0  0  0  0  0  0
   -5.7260  -47.2410    9.6770 H   0  0  0  0  0  0  0  0  0  0  0  0
   -4.7700  -46.0500   10.6410 H   0  0  0  0  0  0  0  0  0  0  0  0
    1.5580  -51.6550    7.1820 H   0  0  0  0  0  0  0  0  0  0  0  0
  1  2  2  0  0  0  0
  2  3  1  0  0  0  0
  2  4  1  0  0  0  0
  4 11  2  0  0  0  0
  4 33  1  0  0  0  0
  5  6  2  0  0  0  0
  5 10  1  0  0  0  0
  5 33  1  0  0  0  0
  6  7  1  0  0  0  0
  6 19  1  0  0  0  0
  7  8  2  0  0  0  0
  7 20  1  0  0  0  0
  8  9  1  0  0  0  0
  8 21  1  0  0  0  0
  9 10  2  0  0  0  0
  9 22  1  0  0  0  0
 10 11  1  0  0  0  0
 11 12  1  0  0  0  0
 12 23  1  0  0  0  0
 12 24  1  0  0  0  0
 12 13  1  0  0  0  0
 13 14  1  0  0  0  0
 13 25  1  0  0  0  0
 13 26  1  0  0  0  0
 14 15  1  0  0  0  0
 14 27  1  0  0  0  0
 14 28  1  0  0  0  0
 15 16  1  0  0  0  0
 16 18  2  0  0  0  0
 16 30  1  0  0  0  0
 17 18  1  0  0  0  0
 17 31  1  0  0  0  0
 17 37  2  0  0  0  0
 18 29  1  0  0  0  0
 30 32  1  0  0  0  0
 30 36  2  0  0  0  0
 33 45  1  0  0  0  0
 34 35  1  0  0  0  0
 34 38  1  0  0  0  0
 34 41  1  0  0  0  0
 34 42  1  0  0  0  0
 35 36  1  0  0  0  0
 35 43  1  0  0  0  0
 35 44  1  0  0  0  0
 36 37  1  0  0  0  0
 37 38  1  0  0  0  0
 38 39  1  0  0  0  0
 38 40  1  0  0  0  0
M  CHG  1   3  -1
M  END
$$$$
