18637-1
 OpenBabel02232411163D
Structure written by MMmdl.
 53 54  0  0  0  0  0  0  0  0999 V2000
   23.8530   12.6300   30.3510 C   0  0  0  0  0  0  0  0  0  0  0  0
   23.4030   11.1860   30.4650 C   0  0  0  0  0  0  0  0  0  0  0  0
   22.1510   11.2850   31.2570 O   0  0  0  0  0  0  0  0  0  0  0  0
   21.5130   10.1430   31.5940 C   0  0  0  0  0  0  0  0  0  0  0  0
   21.9870    8.9580   31.1470 N   0  0  0  0  0  0  0  0  0  0  0  0
   21.2530    7.8190   31.4540 C   0  0  0  0  0  0  0  0  0  0  0  0
   20.1010    7.8560   32.2350 C   0  0  0  0  0  0  0  0  0  0  0  0
   19.6220    9.1030   32.7130 C   0  0  0  0  0  0  0  0  0  0  0  0
   18.4820    9.1440   33.4760 N   0  0  0  0  0  0  0  0  0  0  0  0
   20.3290   10.3020   32.3760 C   0  0  0  0  0  0  0  0  0  0  0  0
   19.9080   11.6000   32.7310 C   0  0  0  0  0  0  0  0  0  0  0  0
   19.6080   12.6930   32.9790 N   0  0  0  0  0  0  0  0  0  0  0  0
   21.8080    6.6630   30.8670 N   0  0  0  0  0  0  0  0  0  0  0  0
   21.2110    5.3820   30.7830 C   0  0  0  0  0  0  0  0  0  0  0  0
   20.1390    5.1260   31.2890 O   0  0  0  0  0  0  0  0  0  0  0  0
   22.0100    4.4010   29.9350 C   0  0  0  0  0  0  0  0  0  0  0  0
   23.3420    4.0630   30.5320 C   0  0  0  0  0  0  0  0  0  0  0  0
   24.4700    4.8850   30.3160 C   0  0  0  0  0  0  0  0  0  0  0  0
   24.2090    5.9660   29.4900 O   0  0  0  0  0  0  0  0  0  0  0  0
   25.2040    7.0210   29.3940 C   0  0  0  0  0  0  0  0  0  0  0  0
   25.7220    4.6020   30.8780 C   0  0  0  0  0  0  0  0  0  0  0  0
   25.8780    3.4580   31.6650 C   0  0  0  0  0  0  0  0  0  0  0  0
   24.7440    2.6130   31.8760 C   0  0  0  0  0  0  0  0  0  0  0  0
   23.5050    2.9100   31.3160 C   0  0  0  0  0  0  0  0  0  0  0  0
   25.0200    1.5350   32.7000 O   0  0  0  0  0  0  0  0  0  0  0  0
   24.0640    0.4450   32.7250 C   0  0  0  0  0  0  0  0  0  0  0  0
   27.1160    3.1260   32.2890 N   0  0  0  0  0  0  0  0  0  0  0  0
   28.3950    3.3290   31.7130 C   0  0  0  0  0  0  0  0  0  0  0  0
   28.5120    3.8270   30.6060 O   0  0  0  0  0  0  0  0  0  0  0  0
   29.5310    2.8860   32.5820 C   0  0  0  0  0  0  0  0  0  0  0  0
   24.7740   12.6700   29.7160 H   0  0  0  0  0  0  0  0  0  0  0  0
   23.0680   13.2560   29.8620 H   0  0  0  0  0  0  0  0  0  0  0  0
   24.0870   13.0640   31.3480 H   0  0  0  0  0  0  0  0  0  0  0  0
   23.1440   10.7420   29.4780 H   0  0  0  0  0  0  0  0  0  0  0  0
   24.1250   10.5570   31.0330 H   0  0  0  0  0  0  0  0  0  0  0  0
   19.5480    6.9440   32.4690 H   0  0  0  0  0  0  0  0  0  0  0  0
   18.0830   10.0290   33.7890 H   0  0  0  0  0  0  0  0  0  0  0  0
   17.9810    8.2730   33.7360 H   0  0  0  0  0  0  0  0  0  0  0  0
   22.7280    6.8070   30.3800 H   0  0  0  0  0  0  0  0  0  0  0  0
   21.4040    3.4680   29.8060 H   0  0  0  0  0  0  0  0  0  0  0  0
   22.1660    4.8660   28.9220 H   0  0  0  0  0  0  0  0  0  0  0  0
   25.4660    7.4020   30.4040 H   0  0  0  0  0  0  0  0  0  0  0  0
   26.0880    6.6480   28.8380 H   0  0  0  0  0  0  0  0  0  0  0  0
   24.6480    7.7910   28.8080 H   0  0  0  0  0  0  0  0  0  0  0  0
   26.5720    5.2690   30.7070 H   0  0  0  0  0  0  0  0  0  0  0  0
   22.6540    2.2460   31.4830 H   0  0  0  0  0  0  0  0  0  0  0  0
   24.6030   -0.3040   33.3540 H   0  0  0  0  0  0  0  0  0  0  0  0
   23.1240    0.7750   33.2160 H   0  0  0  0  0  0  0  0  0  0  0  0
   23.8950    0.0590   31.6970 H   0  0  0  0  0  0  0  0  0  0  0  0
   27.0540    2.5380   33.1370 H   0  0  0  0  0  0  0  0  0  0  0  0
   29.5300    1.7740   32.7200 H   0  0  0  0  0  0  0  0  0  0  0  0
   30.5150    3.1690   32.1290 H   0  0  0  0  0  0  0  0  0  0  0  0
   29.4830    3.3540   33.5990 H   0  0  0  0  0  0  0  0  0  0  0  0
  1  2  1  0  0  0  0
  1 31  1  0  0  0  0
  1 32  1  0  0  0  0
  1 33  1  0  0  0  0
  2  3  1  0  0  0  0
  2 34  1  0  0  0  0
  2 35  1  0  0  0  0
  3  4  1  0  0  0  0
  4 10  2  0  0  0  0
  4  5  1  0  0  0  0
  5  6  2  0  0  0  0
  6  7  1  0  0  0  0
  6 13  1  0  0  0  0
  7  8  2  0  0  0  0
  7 36  1  0  0  0  0
  8  9  1  0  0  0  0
  8 10  1  0  0  0  0
  9 37  1  0  0  0  0
  9 38  1  0  0  0  0
 10 11  1  0  0  0  0
 11 12  3  0  0  0  0
 13 14  1  0  0  0  0
 13 39  1  0  0  0  0
 14 15  2  0  0  0  0
 14 16  1  0  0  0  0
 16 17  1  0  0  0  0
 16 40  1  0  0  0  0
 16 41  1  0  0  0  0
 17 24  2  0  0  0  0
 17 18  1  0  0  0  0
 18 19  1  0  0  0  0
 18 21  2  0  0  0  0
 19 20  1  0  0  0  0
 20 42  1  0  0  0  0
 20 43  1  0  0  0  0
 20 44  1  0  0  0  0
 21 22  1  0  0  0  0
 21 45  1  0  0  0  0
 22 23  2  0  0  0  0
 22 27  1  0  0  0  0
 23 24  1  0  0  0  0
 23 25  1  0  0  0  0
 24 46  1  0  0  0  0
 25 26  1  0  0  0  0
 26 47  1  0  0  0  0
 26 48  1  0  0  0  0
 26 49  1  0  0  0  0
 27 28  1  0  0  0  0
 27 50  1  0  0  0  0
 28 29  2  0  0  0  0
 28 30  1  0  0  0  0
 30 51  1  0  0  0  0
 30 52  1  0  0  0  0
 30 53  1  0  0  0  0
M  END
$$$$
