CAT-17f
                    3D
 Schrodinger Suite 2022-3.
 43 46  0  0  1  0  0  0  0  0999 V2000
   11.7620   -2.4370    1.2850 C   0  0  0  0  0  0  0  0  0  0  0  0
   13.0480   -2.8090    0.6600 N   0  0  0  0  0  0  0  0  0  0  0  0
   14.2570   -2.7410    1.3620 C   0  0  0  0  0  0  0  0  0  0  0  0
   14.3940   -2.6340    2.7130 N   0  0  0  0  0  0  0  0  0  0  0  0
   15.3210   -2.8740    0.4830 N   0  3  0  0  0  0  0  0  0  0  0  0
   14.8500   -3.1460   -0.9240 C   0  0  1  0  0  0  0  0  0  0  0  0
   15.3760   -2.0330   -1.8100 C   0  0  0  0  0  0  0  0  0  0  0  0
   16.3320   -2.2810   -2.8000 C   0  0  0  0  0  0  0  0  0  0  0  0
   16.7480   -1.2400   -3.6390 C   0  0  0  0  0  0  0  0  0  0  0  0
   16.2310    0.0470   -3.4850 C   0  0  0  0  0  0  0  0  0  0  0  0
   15.3100    0.3110   -2.4570 C   0  0  0  0  0  0  0  0  0  0  0  0
   14.7860    1.6720   -2.2260 C   0  0  0  0  0  0  0  0  0  0  0  0
   14.0090    2.3320   -3.2030 C   0  0  0  0  0  0  0  0  0  0  0  0
   13.4740    3.5620   -2.9940 N   0  0  0  0  0  0  0  0  0  0  0  0
   13.7010    4.1850   -1.8120 C   0  0  0  0  0  0  0  0  0  0  0  0
   14.4840    3.5940   -0.7910 C   0  0  0  0  0  0  0  0  0  0  0  0
   14.7100    4.2710    0.4460 C   0  0  0  0  0  0  0  0  0  0  0  0
   14.8900    4.8200    1.4480 N   0  0  0  0  0  0  0  0  0  0  0  0
   15.0290    2.3190   -1.0080 C   0  0  0  0  0  0  0  0  0  0  0  0
   14.8850   -0.7310   -1.6230 C   0  0  0  0  0  0  0  0  0  0  0  0
   15.1210   -4.5580   -1.4150 C   0  0  0  0  0  0  0  0  0  0  0  0
   16.3330   -5.3550   -0.9560 C   0  0  0  0  0  0  0  0  0  0  0  0
   14.9500   -5.7620   -0.4970 C   0  0  0  0  0  0  0  0  0  0  0  0
   13.2930   -3.0180   -0.7770 C   0  0  0  0  0  0  0  0  0  0  0  0
   12.4090   -3.0780   -1.5700 O   0  0  0  0  0  0  0  0  0  0  0  0
   11.6560   -2.9490    2.2800 H   0  0  0  0  0  0  0  0  0  0  0  0
   11.7320   -1.3250    1.4280 H   0  0  0  0  0  0  0  0  0  0  0  0
   10.9170   -2.7620    0.6210 H   0  0  0  0  0  0  0  0  0  0  0  0
   13.6580   -2.1810    3.3090 H   0  0  0  0  0  0  0  0  0  0  0  0
   16.2820   -3.1180    0.8340 H   0  0  0  0  0  0  0  0  0  0  0  0
   16.7600   -3.2780   -2.9170 H   0  0  0  0  0  0  0  0  0  0  0  0
   17.4910   -1.4420   -4.4180 H   0  0  0  0  0  0  0  0  0  0  0  0
   16.5510    0.8500   -4.1580 H   0  0  0  0  0  0  0  0  0  0  0  0
   13.8080    1.8550   -4.1770 H   0  0  0  0  0  0  0  0  0  0  0  0
   13.2390    5.1780   -1.6780 H   0  0  0  0  0  0  0  0  0  0  0  0
   15.6320    1.8270   -0.2410 H   0  0  0  0  0  0  0  0  0  0  0  0
   14.1780   -0.5210   -0.8200 H   0  0  0  0  0  0  0  0  0  0  0  0
   14.8050   -4.6710   -2.4700 H   0  0  0  0  0  0  0  0  0  0  0  0
   16.8540   -5.9740   -1.7000 H   0  0  0  0  0  0  0  0  0  0  0  0
   17.0250   -4.8970   -0.2370 H   0  0  0  0  0  0  0  0  0  0  0  0
   14.6620   -5.6000    0.5480 H   0  0  0  0  0  0  0  0  0  0  0  0
   14.4970   -6.6740   -0.9180 H   0  0  0  0  0  0  0  0  0  0  0  0
   15.3650   -2.5420    3.1180 H   0  0  0  0  0  0  0  0  0  0  0  0
  1  2  1  0  0  0  0
  1 26  1  0  0  0  0
  1 27  1  0  0  0  0
  1 28  1  0  0  0  0
  2  3  1  0  0  0  0
  2 24  1  0  0  0  0
  3  4  1  0  0  0  0
  3  5  2  0  0  0  0
  4 29  1  0  0  0  0
  4 43  1  0  0  0  0
  5  6  1  0  0  0  0
  5 30  1  0  0  0  0
  6  7  1  0  0  0  0
  6 21  1  0  0  0  0
  6 24  1  0  0  0  0
  7  8  2  0  0  0  0
  7 20  1  0  0  0  0
  8  9  1  0  0  0  0
  8 31  1  0  0  0  0
  9 10  2  0  0  0  0
  9 32  1  0  0  0  0
 10 11  1  0  0  0  0
 10 33  1  0  0  0  0
 11 12  1  0  0  0  0
 11 20  2  0  0  0  0
 12 13  2  0  0  0  0
 12 19  1  0  0  0  0
 13 14  1  0  0  0  0
 13 34  1  0  0  0  0
 14 15  2  0  0  0  0
 15 16  1  0  0  0  0
 15 35  1  0  0  0  0
 16 17  1  0  0  0  0
 16 19  2  0  0  0  0
 17 18  3  0  0  0  0
 19 36  1  0  0  0  0
 20 37  1  0  0  0  0
 21 22  1  0  0  0  0
 21 23  1  0  0  0  0
 21 38  1  0  0  0  0
 22 23  1  0  0  0  0
 22 39  1  0  0  0  0
 22 40  1  0  0  0  0
 23 41  1  0  0  0  0
 23 42  1  0  0  0  0
 24 25  2  0  0  0  0
M  CHG  1   5   1
M  END
$$$$
