CAT-17b
 OpenBabel02232411143D
Structure written by MMmdl.
 47 50  0  0  1  0  0  0  0  0999 V2000
   12.7550    4.4530   -5.1260 C   0  0  0  0  0  0  0  0  0  0  0  0
   13.2390    4.9980   -3.8700 O   0  0  0  0  0  0  0  0  0  0  0  0
   14.0050    4.1980   -3.0620 C   0  0  0  0  0  0  0  0  0  0  0  0
   14.3770    4.8490   -1.8600 C   0  0  0  0  0  0  0  0  0  0  0  0
   15.1380    4.1510   -0.9340 C   0  0  0  0  0  0  0  0  0  0  0  0
   15.5230    2.8230   -1.1830 C   0  0  0  0  0  0  0  0  0  0  0  0
   15.1360    2.1910   -2.3670 C   0  0  0  0  0  0  0  0  0  0  0  0
   15.4940    0.7670   -2.5840 C   0  0  0  0  0  0  0  0  0  0  0  0
   16.2990    0.3690   -3.6640 C   0  0  0  0  0  0  0  0  0  0  0  0
   16.6730   -0.9700   -3.8000 C   0  0  0  0  0  0  0  0  0  0  0  0
   16.2230   -1.9330   -2.8910 C   0  0  0  0  0  0  0  0  0  0  0  0
   15.3700   -1.5510   -1.8470 C   0  0  0  0  0  0  0  0  0  0  0  0
   14.7890   -2.5720   -0.8950 C   0  0  1  0  0  0  0  0  0  0  0  0
   15.0060   -4.0300   -1.2720 C   0  0  0  0  0  0  0  0  0  0  0  0
   16.2250   -4.7910   -0.7800 C   0  0  0  0  0  0  0  0  0  0  0  0
   14.8580   -5.1400   -0.2370 C   0  0  0  0  0  0  0  0  0  0  0  0
   15.2400   -2.2560    0.5130 N   0  3  0  0  0  0  0  0  0  0  0  0
   14.1500   -2.3360    1.3910 C   0  0  0  0  0  0  0  0  0  0  0  0
   14.2990   -2.4620    2.7420 N   0  0  0  0  0  0  0  0  0  0  0  0
   12.9600   -2.3180    0.6720 N   0  0  0  0  0  0  0  0  0  0  0  0
   11.6150   -2.3870    1.2810 C   0  0  0  0  0  0  0  0  0  0  0  0
   13.2360   -2.3970   -0.7810 C   0  0  0  0  0  0  0  0  0  0  0  0
   12.3690   -2.3300   -1.5910 O   0  0  0  0  0  0  0  0  0  0  0  0
   15.0240   -0.2000   -1.6840 C   0  0  0  0  0  0  0  0  0  0  0  0
   14.3830    2.8790   -3.3330 C   0  0  0  0  0  0  0  0  0  0  0  0
   12.1950    5.3240   -5.5440 H   0  0  0  0  0  0  0  0  0  0  0  0
   13.6110    4.1750   -5.7730 H   0  0  0  0  0  0  0  0  0  0  0  0
   12.0780    3.5930   -4.9340 H   0  0  0  0  0  0  0  0  0  0  0  0
   14.0410    5.8690   -1.6680 H   0  0  0  0  0  0  0  0  0  0  0  0
   15.4310    4.6190    0.0110 H   0  0  0  0  0  0  0  0  0  0  0  0
   16.1050    2.2800   -0.4380 H   0  0  0  0  0  0  0  0  0  0  0  0
   16.6400    1.1040   -4.3990 H   0  0  0  0  0  0  0  0  0  0  0  0
   17.3280   -1.2720   -4.6240 H   0  0  0  0  0  0  0  0  0  0  0  0
   16.5380   -2.9720   -2.9950 H   0  0  0  0  0  0  0  0  0  0  0  0
   14.6500   -4.2460   -2.2950 H   0  0  0  0  0  0  0  0  0  0  0  0
   16.7380   -5.4570   -1.4720 H   0  0  0  0  0  0  0  0  0  0  0  0
   16.9440   -4.2890   -0.1310 H   0  0  0  0  0  0  0  0  0  0  0  0
   14.6250   -4.8870    0.8050 H   0  0  0  0  0  0  0  0  0  0  0  0
   14.3680   -6.0730   -0.5480 H   0  0  0  0  0  0  0  0  0  0  0  0
   16.1730   -2.6070    0.8680 H   0  0  0  0  0  0  0  0  0  0  0  0
   13.5860   -2.0760    3.4100 H   0  0  0  0  0  0  0  0  0  0  0  0
   11.1000   -1.3980    1.1530 H   0  0  0  0  0  0  0  0  0  0  0  0
   11.6790   -2.6360    2.3720 H   0  0  0  0  0  0  0  0  0  0  0  0
   11.0200   -3.1950    0.7720 H   0  0  0  0  0  0  0  0  0  0  0  0
   14.3910    0.0960   -0.8480 H   0  0  0  0  0  0  0  0  0  0  0  0
   14.1050    2.3720   -4.2570 H   0  0  0  0  0  0  0  0  0  0  0  0
   15.2800   -2.3980    3.1400 H   0  0  0  0  0  0  0  0  0  0  0  0
  1  2  1  0  0  0  0
  1 26  1  0  0  0  0
  1 27  1  0  0  0  0
  1 28  1  0  0  0  0
  2  3  1  0  0  0  0
  3  4  2  0  0  0  0
  3 25  1  0  0  0  0
  4  5  1  0  0  0  0
  4 29  1  0  0  0  0
  5  6  2  0  0  0  0
  5 30  1  0  0  0  0
  6  7  1  0  0  0  0
  6 31  1  0  0  0  0
  7  8  1  0  0  0  0
  7 25  2  0  0  0  0
  8  9  2  0  0  0  0
  8 24  1  0  0  0  0
  9 10  1  0  0  0  0
  9 32  1  0  0  0  0
 10 11  2  0  0  0  0
 10 33  1  0  0  0  0
 11 12  1  0  0  0  0
 11 34  1  0  0  0  0
 12 24  2  0  0  0  0
 13 12  1  6  0  0  0
 13 14  1  0  0  0  0
 13 17  1  0  0  0  0
 13 22  1  0  0  0  0
 14 15  1  0  0  0  0
 14 16  1  0  0  0  0
 14 35  1  0  0  0  0
 15 16  1  0  0  0  0
 15 36  1  0  0  0  0
 15 37  1  0  0  0  0
 16 38  1  0  0  0  0
 16 39  1  0  0  0  0
 17 18  2  0  0  0  0
 17 40  1  0  0  0  0
 18 19  1  0  0  0  0
 18 20  1  0  0  0  0
 19 41  1  0  0  0  0
 19 47  1  0  0  0  0
 20 21  1  0  0  0  0
 20 22  1  0  0  0  0
 21 42  1  0  0  0  0
 21 43  1  0  0  0  0
 21 44  1  0  0  0  0
 22 23  2  0  0  0  0
 24 45  1  0  0  0  0
 25 46  1  0  0  0  0
M  CHG  1  17   1
M  END
$$$$
