29
 OpenBabel02232411153D
Structure written by MMmdl.
 56 59  0  0  0  0  0  0  0  0999 V2000
    1.8710   28.9570    6.7190 C   0  0  0  0  0  0  0  0  0  0  0  0
   -1.6130   31.4950    7.9810 C   0  0  0  0  0  0  0  0  0  0  0  0
    0.0550   26.0730    8.9360 C   0  0  0  0  0  0  0  0  0  0  0  0
   -0.7840   25.3210    9.9760 C   0  0  0  0  0  0  0  0  0  0  0  0
   -0.5720   23.8080    9.7450 C   0  0  0  0  0  0  0  0  0  0  0  0
   -1.3120   22.9770   10.8040 C   0  0  0  0  0  0  0  0  0  0  0  0
   -0.9080   23.3890   12.2290 C   0  0  0  0  0  0  0  0  0  0  0  0
   -1.1240   24.8930   12.4600 C   0  0  0  0  0  0  0  0  0  0  0  0
   -0.3860   25.7320   11.4060 C   0  0  0  0  0  0  0  0  0  0  0  0
    5.2880   25.7570    5.2550 C   0  0  0  0  0  0  0  0  0  0  0  0
    5.3060   25.0030    6.4350 C   0  0  0  0  0  0  0  0  0  0  0  0
    4.5900   25.4690    7.5480 C   0  0  0  0  0  0  0  0  0  0  0  0
    3.8170   26.6270    7.4810 C   0  0  0  0  0  0  0  0  0  0  0  0
    1.2030   27.9910    7.4640 N   0  0  0  0  0  0  0  0  0  0  0  0
    0.0160   28.3010    8.0490 C   0  0  0  0  0  0  0  0  0  0  0  0
   -0.6230   27.3890    8.7950 O   0  0  0  0  0  0  0  0  0  0  0  0
   -0.5380   29.5990    7.8890 C   0  0  0  0  0  0  0  0  0  0  0  0
   -1.6890   30.2230    8.3830 N   0  0  0  0  0  0  0  0  0  0  0  0
   -0.4160   31.7570    7.2250 N   0  0  0  0  0  0  0  0  0  0  0  0
    0.2650   30.5480    7.1350 C   0  0  0  0  0  0  0  0  0  0  0  0
    1.4540   30.2590    6.5110 N   0  0  0  0  0  0  0  0  0  0  0  0
    3.0620   28.5770    6.1030 N   0  0  0  0  0  0  0  0  0  0  0  0
    3.7850   27.3640    6.2840 C   0  0  0  0  0  0  0  0  0  0  0  0
    4.5610   26.9380    5.1820 C   0  0  0  0  0  0  0  0  0  0  0  0
   -2.3290   32.2840    8.1920 H   0  0  0  0  0  0  0  0  0  0  0  0
    1.0980   26.2450    9.2830 H   0  0  0  0  0  0  0  0  0  0  0  0
    0.0260   25.5950    7.9360 H   0  0  0  0  0  0  0  0  0  0  0  0
   -1.8640   25.5630    9.8290 H   0  0  0  0  0  0  0  0  0  0  0  0
   -0.9450   23.5300    8.7350 H   0  0  0  0  0  0  0  0  0  0  0  0
    0.5200   23.5730    9.7980 H   0  0  0  0  0  0  0  0  0  0  0  0
   -2.4070   23.1260   10.6810 H   0  0  0  0  0  0  0  0  0  0  0  0
   -1.0730   21.8980   10.6570 H   0  0  0  0  0  0  0  0  0  0  0  0
   -1.5140   22.8110   12.9630 H   0  0  0  0  0  0  0  0  0  0  0  0
    0.1690   23.1480   12.3840 H   0  0  0  0  0  0  0  0  0  0  0  0
   -2.2140   25.1210   12.4300 H   0  0  0  0  0  0  0  0  0  0  0  0
   -0.7360   25.1670   13.4690 H   0  0  0  0  0  0  0  0  0  0  0  0
    0.7130   25.5880   11.5450 H   0  0  0  0  0  0  0  0  0  0  0  0
   -0.6210   26.8090   11.5610 H   0  0  0  0  0  0  0  0  0  0  0  0
    5.8420   25.4350    4.3630 H   0  0  0  0  0  0  0  0  0  0  0  0
    4.6230   24.9370    8.5060 H   0  0  0  0  0  0  0  0  0  0  0  0
    3.2390   26.9390    8.3520 H   0  0  0  0  0  0  0  0  0  0  0  0
   -0.1680   32.6440    6.7610 H   0  0  0  0  0  0  0  0  0  0  0  0
    3.5170   29.2500    5.4380 H   0  0  0  0  0  0  0  0  0  0  0  0
    4.5930   27.5320    4.2720 H   0  0  0  0  0  0  0  0  0  0  0  0
    6.2650   23.5770    6.4990 S   0  0  0  0  0  0  0  0  0  0  0  0
    6.8960   23.2930    5.2070 O   0  0  0  0  0  0  0  0  0  0  0  0
    7.2160   23.7180    7.6050 O   0  0  0  0  0  0  0  0  0  0  0  0
    5.2480   22.1990    6.8370 N   0  0  0  0  0  0  0  0  0  0  0  0
    4.4340   21.7900    5.6560 C   0  0  0  0  0  0  0  0  0  0  0  0
    5.1110   21.4210    4.8430 H   0  0  0  0  0  0  0  0  0  0  0  0
    3.7360   20.9560    5.9340 H   0  0  0  0  0  0  0  0  0  0  0  0
    3.7940   22.6220    5.2610 H   0  0  0  0  0  0  0  0  0  0  0  0
    4.3690   22.3520    8.0280 C   0  0  0  0  0  0  0  0  0  0  0  0
    3.8660   21.3740    8.2590 H   0  0  0  0  0  0  0  0  0  0  0  0
    4.9750   22.6400    8.9260 H   0  0  0  0  0  0  0  0  0  0  0  0
    3.5370   23.0930    7.8730 H   0  0  0  0  0  0  0  0  0  0  0  0
  1 14  2  0  0  0  0
  1 21  1  0  0  0  0
  1 22  1  0  0  0  0
  2 18  2  0  0  0  0
  2 19  1  0  0  0  0
  2 25  1  0  0  0  0
  3  4  1  0  0  0  0
  3 16  1  0  0  0  0
  3 26  1  0  0  0  0
  3 27  1  0  0  0  0
  4  5  1  0  0  0  0
  4  9  1  0  0  0  0
  4 28  1  0  0  0  0
  5  6  1  0  0  0  0
  5 29  1  0  0  0  0
  5 30  1  0  0  0  0
  6  7  1  0  0  0  0
  6 31  1  0  0  0  0
  6 32  1  0  0  0  0
  7  8  1  0  0  0  0
  7 33  1  0  0  0  0
  7 34  1  0  0  0  0
  8  9  1  0  0  0  0
  8 35  1  0  0  0  0
  8 36  1  0  0  0  0
  9 37  1  0  0  0  0
  9 38  1  0  0  0  0
 10 11  2  0  0  0  0
 10 24  1  0  0  0  0
 10 39  1  0  0  0  0
 11 12  1  0  0  0  0
 11 45  1  0  0  0  0
 12 13  2  0  0  0  0
 12 40  1  0  0  0  0
 13 23  1  0  0  0  0
 13 41  1  0  0  0  0
 14 15  1  0  0  0  0
 15 16  1  0  0  0  0
 15 17  2  0  0  0  0
 17 18  1  0  0  0  0
 17 20  1  0  0  0  0
 19 20  1  0  0  0  0
 19 42  1  0  0  0  0
 20 21  2  0  0  0  0
 22 23  1  0  0  0  0
 22 43  1  0  0  0  0
 23 24  2  0  0  0  0
 24 44  1  0  0  0  0
 45 46  2  0  0  0  0
 45 47  2  0  0  0  0
 45 48  1  0  0  0  0
 48 49  1  0  0  0  0
 48 53  1  0  0  0  0
 49 50  1  0  0  0  0
 49 51  1  0  0  0  0
 49 52  1  0  0  0  0
 53 54  1  0  0  0  0
 53 55  1  0  0  0  0
 53 56  1  0  0  0  0
M  END
$$$$
