28
 OpenBabel02232411153D
Structure written by MMmdl.
 53 56  0  0  0  0  0  0  0  0999 V2000
    1.6760   28.9330    6.8240 C   0  0  0  0  0  0  0  0  0  0  0  0
   -1.7380   31.5700    8.0620 C   0  0  0  0  0  0  0  0  0  0  0  0
   -0.3180   26.0550    8.9050 C   0  0  0  0  0  0  0  0  0  0  0  0
   -1.0380   25.3570   10.0650 C   0  0  0  0  0  0  0  0  0  0  0  0
   -0.8250   23.8370    9.8790 C   0  0  0  0  0  0  0  0  0  0  0  0
   -1.3840   23.0410   11.0660 C   0  0  0  0  0  0  0  0  0  0  0  0
   -0.8090   23.5370   12.4020 C   0  0  0  0  0  0  0  0  0  0  0  0
   -1.0680   25.0390   12.5900 C   0  0  0  0  0  0  0  0  0  0  0  0
   -0.4950   25.8520   11.4200 C   0  0  0  0  0  0  0  0  0  0  0  0
    4.2310   25.4690    7.9790 C   0  0  0  0  0  0  0  0  0  0  0  0
    5.0940   24.9890    6.9820 C   0  0  0  0  0  0  0  0  0  0  0  0
    5.2200   25.6970    5.7800 C   0  0  0  0  0  0  0  0  0  0  0  0
    4.4880   26.8590    5.5680 C   0  0  0  0  0  0  0  0  0  0  0  0
    0.9550   27.9780    7.5350 N   0  0  0  0  0  0  0  0  0  0  0  0
   -0.2230   28.3210    8.1180 C   0  0  0  0  0  0  0  0  0  0  0  0
   -0.9040   27.4210    8.8410 O   0  0  0  0  0  0  0  0  0  0  0  0
   -0.7230   29.6430    7.9750 C   0  0  0  0  0  0  0  0  0  0  0  0
   -1.8520   30.3030    8.4700 N   0  0  0  0  0  0  0  0  0  0  0  0
   -0.5380   31.7920    7.2980 N   0  0  0  0  0  0  0  0  0  0  0  0
    0.1090   30.5640    7.2190 C   0  0  0  0  0  0  0  0  0  0  0  0
    1.2960   30.2410    6.6040 N   0  0  0  0  0  0  0  0  0  0  0  0
    2.8890   28.5230    6.2670 N   0  0  0  0  0  0  0  0  0  0  0  0
    3.5980   27.3230    6.5620 C   0  0  0  0  0  0  0  0  0  0  0  0
    3.4910   26.6320    7.7830 C   0  0  0  0  0  0  0  0  0  0  0  0
   -2.4270   32.3820    8.2770 H   0  0  0  0  0  0  0  0  0  0  0  0
    0.7750   26.1340    9.0960 H   0  0  0  0  0  0  0  0  0  0  0  0
   -0.5390   25.5930    7.9210 H   0  0  0  0  0  0  0  0  0  0  0  0
   -2.1320   25.5790   10.0280 H   0  0  0  0  0  0  0  0  0  0  0  0
   -1.3370   23.5050    8.9490 H   0  0  0  0  0  0  0  0  0  0  0  0
    0.2690   23.6260    9.7890 H   0  0  0  0  0  0  0  0  0  0  0  0
   -2.4890   23.1500   11.0920 H   0  0  0  0  0  0  0  0  0  0  0  0
   -1.1330   21.9620   10.9390 H   0  0  0  0  0  0  0  0  0  0  0  0
   -1.2820   22.9740   13.2390 H   0  0  0  0  0  0  0  0  0  0  0  0
    0.2900   23.3510   12.4180 H   0  0  0  0  0  0  0  0  0  0  0  0
   -2.1630   25.2210   12.6820 H   0  0  0  0  0  0  0  0  0  0  0  0
   -0.5790   25.3780   13.5320 H   0  0  0  0  0  0  0  0  0  0  0  0
    0.6180   25.7590   11.4400 H   0  0  0  0  0  0  0  0  0  0  0  0
   -0.7620   26.9250   11.5540 H   0  0  0  0  0  0  0  0  0  0  0  0
    4.1270   24.9400    8.9360 H   0  0  0  0  0  0  0  0  0  0  0  0
    5.8920   25.3550    4.9820 H   0  0  0  0  0  0  0  0  0  0  0  0
    4.6120   27.4070    4.6330 H   0  0  0  0  0  0  0  0  0  0  0  0
   -0.2570   32.6660    6.8290 H   0  0  0  0  0  0  0  0  0  0  0  0
    3.3980   29.1760    5.6240 H   0  0  0  0  0  0  0  0  0  0  0  0
    2.8350   26.9900    8.5780 H   0  0  0  0  0  0  0  0  0  0  0  0
    6.0200   23.5790    7.3040 S   0  0  0  0  0  0  0  0  0  0  0  0
    6.9680   23.9290    8.3590 O   0  0  0  0  0  0  0  0  0  0  0  0
    5.1510   22.4130    7.5250 O   0  0  0  0  0  0  0  0  0  0  0  0
    6.8620   23.2000    5.8620 N   0  0  0  0  0  0  0  0  0  0  0  0
    6.7490   22.2520    5.4680 H   0  0  0  0  0  0  0  0  0  0  0  0
    8.2450   23.6990    5.6660 C   0  0  0  0  0  0  0  0  0  0  0  0
    8.5270   23.5300    4.5890 H   0  0  0  0  0  0  0  0  0  0  0  0
    8.2820   24.8040    5.8490 H   0  0  0  0  0  0  0  0  0  0  0  0
    8.9940   23.1800    6.3150 H   0  0  0  0  0  0  0  0  0  0  0  0
  1 14  2  0  0  0  0
  1 21  1  0  0  0  0
  1 22  1  0  0  0  0
  2 18  2  0  0  0  0
  2 19  1  0  0  0  0
  2 25  1  0  0  0  0
  3  4  1  0  0  0  0
  3 16  1  0  0  0  0
  3 26  1  0  0  0  0
  3 27  1  0  0  0  0
  4  5  1  0  0  0  0
  4  9  1  0  0  0  0
  4 28  1  0  0  0  0
  5  6  1  0  0  0  0
  5 29  1  0  0  0  0
  5 30  1  0  0  0  0
  6  7  1  0  0  0  0
  6 31  1  0  0  0  0
  6 32  1  0  0  0  0
  7  8  1  0  0  0  0
  7 33  1  0  0  0  0
  7 34  1  0  0  0  0
  8  9  1  0  0  0  0
  8 35  1  0  0  0  0
  8 36  1  0  0  0  0
  9 37  1  0  0  0  0
  9 38  1  0  0  0  0
 10 11  2  0  0  0  0
 10 24  1  0  0  0  0
 10 39  1  0  0  0  0
 11 12  1  0  0  0  0
 11 45  1  0  0  0  0
 12 13  2  0  0  0  0
 12 40  1  0  0  0  0
 13 23  1  0  0  0  0
 13 41  1  0  0  0  0
 14 15  1  0  0  0  0
 15 16  1  0  0  0  0
 15 17  2  0  0  0  0
 17 18  1  0  0  0  0
 17 20  1  0  0  0  0
 19 20  1  0  0  0  0
 19 42  1  0  0  0  0
 20 21  2  0  0  0  0
 22 23  1  0  0  0  0
 22 43  1  0  0  0  0
 23 24  2  0  0  0  0
 24 44  1  0  0  0  0
 45 46  2  0  0  0  0
 45 47  2  0  0  0  0
 45 48  1  0  0  0  0
 48 49  1  0  0  0  0
 48 50  1  0  0  0  0
 50 51  1  0  0  0  0
 50 52  1  0  0  0  0
 50 53  1  0  0  0  0
M  END
$$$$
