p38a_3flz
 OpenBabel02232411163D
Structure written by MMmdl.
 46 49  0  0  0  0  0  0  0  0999 V2000
   35.0590   35.1560   19.0690 O   0  0  0  0  0  0  0  0  0  0  0  0
   34.9090   37.2770   20.2710 C   0  0  0  0  0  0  0  0  0  0  0  0
   34.2210   37.1590   22.6510 C   0  0  0  0  0  0  0  0  0  0  0  0
   34.5840   37.9300   21.5070 C   0  0  0  0  0  0  0  0  0  0  0  0
   34.6020   39.3430   21.6600 C   0  0  0  0  0  0  0  0  0  0  0  0
   34.0420   39.1290   23.9280 C   0  0  0  0  0  0  0  0  0  0  0  0
   34.8330   35.9250   20.2060 C   0  0  0  0  0  0  0  0  0  0  0  0
   36.1070   35.5810   18.2330 C   0  0  0  0  0  0  0  0  0  0  0  0
   33.7690   34.9850   23.7790 C   0  0  0  0  0  0  0  0  0  0  0  0
   34.0270   39.6830   27.6010 C   0  0  0  0  0  0  0  0  0  0  0  0
   35.8190   35.5060   16.8650 C   0  0  0  0  0  0  0  0  0  0  0  0
   38.1070   36.1870   16.4310 C   0  0  0  0  0  0  0  0  0  0  0  0
   36.8420   35.8160   15.9650 C   0  0  0  0  0  0  0  0  0  0  0  0
   38.3690   36.2430   17.8040 C   0  0  0  0  0  0  0  0  0  0  0  0
   34.2320   33.8590   21.2780 O   0  0  0  0  0  0  0  0  0  0  0  0
   34.3890   35.0590   21.3270 C   0  0  0  0  0  0  0  0  0  0  0  0
   37.3670   35.9330   18.7280 C   0  0  0  0  0  0  0  0  0  0  0  0
   34.3400   39.9550   22.8230 N   0  0  0  0  0  0  0  0  0  0  0  0
   34.1320   35.7620   22.5610 N   0  0  0  0  0  0  0  0  0  0  0  0
   33.9440   37.7530   23.8580 N   0  0  0  0  0  0  0  0  0  0  0  0
   33.8870   39.7460   25.1470 N   0  0  0  0  0  0  0  0  0  0  0  0
   33.3890   39.0270   26.3580 C   0  0  0  0  0  0  0  0  0  0  0  0
   31.8480   39.1110   26.4490 C   0  0  0  0  0  0  0  0  0  0  0  0
   31.3730   38.5020   27.7730 C   0  0  0  0  0  0  0  0  0  0  0  0
   32.0190   39.1170   28.9110 O   0  0  0  0  0  0  0  0  0  0  0  0
   33.4600   39.0350   28.8700 C   0  0  0  0  0  0  0  0  0  0  0  0
   35.2220   37.8930   19.4230 H   0  0  0  0  0  0  0  0  0  0  0  0
   34.8280   39.9840   20.7910 H   0  0  0  0  0  0  0  0  0  0  0  0
   33.8090   33.8860   23.5670 H   0  0  0  0  0  0  0  0  0  0  0  0
   34.4840   35.2230   24.6140 H   0  0  0  0  0  0  0  0  0  0  0  0
   32.7320   35.2590   24.1160 H   0  0  0  0  0  0  0  0  0  0  0  0
   35.1370   39.5460   27.5780 H   0  0  0  0  0  0  0  0  0  0  0  0
   33.8160   40.7800   27.6070 H   0  0  0  0  0  0  0  0  0  0  0  0
   34.8180   35.2620   16.5050 H   0  0  0  0  0  0  0  0  0  0  0  0
   38.8850   36.4730   15.7280 H   0  0  0  0  0  0  0  0  0  0  0  0
   36.6410   35.7950   14.8930 H   0  0  0  0  0  0  0  0  0  0  0  0
   39.3590   36.5480   18.1470 H   0  0  0  0  0  0  0  0  0  0  0  0
   37.5630   35.9980   19.7960 H   0  0  0  0  0  0  0  0  0  0  0  0
   33.8400   40.7830   25.1920 H   0  0  0  0  0  0  0  0  0  0  0  0
   33.7070   37.9480   26.3020 H   0  0  0  0  0  0  0  0  0  0  0  0
   31.5320   40.1780   26.3830 H   0  0  0  0  0  0  0  0  0  0  0  0
   31.3840   38.5510   25.6020 H   0  0  0  0  0  0  0  0  0  0  0  0
   30.3000   38.7310   27.9680 H   0  0  0  0  0  0  0  0  0  0  0  0
   31.5660   37.4040   27.7990 H   0  0  0  0  0  0  0  0  0  0  0  0
   33.7660   37.9650   28.9420 H   0  0  0  0  0  0  0  0  0  0  0  0
   33.7580   39.6050   29.7810 H   0  0  0  0  0  0  0  0  0  0  0  0
  1  7  1  0  0  0  0
  1  8  1  0  0  0  0
  2  4  1  0  0  0  0
  2  7  2  0  0  0  0
  2 27  1  0  0  0  0
  3  4  2  0  0  0  0
  3 19  1  0  0  0  0
  3 20  1  0  0  0  0
  4  5  1  0  0  0  0
  5 18  2  0  0  0  0
  5 28  1  0  0  0  0
  6 18  1  0  0  0  0
  6 20  2  0  0  0  0
  6 21  1  0  0  0  0
  7 16  1  0  0  0  0
  8 11  2  0  0  0  0
  8 17  1  0  0  0  0
  9 19  1  0  0  0  0
  9 29  1  0  0  0  0
  9 30  1  0  0  0  0
  9 31  1  0  0  0  0
 10 22  1  0  0  0  0
 10 26  1  0  0  0  0
 10 32  1  0  0  0  0
 10 33  1  0  0  0  0
 11 13  1  0  0  0  0
 11 34  1  0  0  0  0
 12 13  2  0  0  0  0
 12 14  1  0  0  0  0
 12 35  1  0  0  0  0
 13 36  1  0  0  0  0
 14 17  2  0  0  0  0
 14 37  1  0  0  0  0
 15 16  2  0  0  0  0
 16 19  1  0  0  0  0
 17 38  1  0  0  0  0
 21 22  1  0  0  0  0
 21 39  1  0  0  0  0
 22 23  1  0  0  0  0
 22 40  1  0  0  0  0
 23 24  1  0  0  0  0
 23 41  1  0  0  0  0
 23 42  1  0  0  0  0
 24 25  1  0  0  0  0
 24 43  1  0  0  0  0
 24 44  1  0  0  0  0
 25 26  1  0  0  0  0
 26 45  1  0  0  0  0
 26 46  1  0  0  0  0
M  END
$$$$
