p38a_3flw
 OpenBabel02232411163D
Structure written by MMmdl.
 49 51  0  0  0  0  0  0  0  0999 V2000
   36.3970   36.1030   15.7430 C   0  0  0  0  0  0  0  0  0  0  0  0
   37.6870   36.6210   15.9180 C   0  0  0  0  0  0  0  0  0  0  0  0
   33.2490   37.5020   26.5930 C   0  0  0  0  0  0  0  0  0  0  0  0
   32.3820   36.8440   27.6770 C   0  0  0  0  0  0  0  0  0  0  0  0
   32.3400   39.8380   27.1930 C   0  0  0  0  0  0  0  0  0  0  0  0
   33.0670   34.8500   23.2340 C   0  0  0  0  0  0  0  0  0  0  0  0
   34.5650   35.0580   16.8020 F   0  0  0  0  0  0  0  0  0  0  0  0
   35.7720   35.6020   16.8800 C   0  0  0  0  0  0  0  0  0  0  0  0
   38.2870   37.1660   14.8630 F   0  0  0  0  0  0  0  0  0  0  0  0
   38.3560   36.6260   17.1450 C   0  0  0  0  0  0  0  0  0  0  0  0
   37.6900   36.1520   18.2820 C   0  0  0  0  0  0  0  0  0  0  0  0
   36.3980   35.6410   18.1430 C   0  0  0  0  0  0  0  0  0  0  0  0
   35.7110   35.0000   19.1820 O   0  0  0  0  0  0  0  0  0  0  0  0
   35.1780   35.8220   20.1710 C   0  0  0  0  0  0  0  0  0  0  0  0
   35.3000   37.1620   20.3080 C   0  0  0  0  0  0  0  0  0  0  0  0
   34.7180   37.7930   21.4640 C   0  0  0  0  0  0  0  0  0  0  0  0
   34.8130   39.1880   21.7190 C   0  0  0  0  0  0  0  0  0  0  0  0
   34.3690   39.7580   22.8500 N   0  0  0  0  0  0  0  0  0  0  0  0
   34.4070   34.9510   21.1010 C   0  0  0  0  0  0  0  0  0  0  0  0
   34.2350   33.7600   20.9610 O   0  0  0  0  0  0  0  0  0  0  0  0
   33.8410   35.6350   22.2320 N   0  0  0  0  0  0  0  0  0  0  0  0
   34.0290   37.0130   22.4380 C   0  0  0  0  0  0  0  0  0  0  0  0
   33.5440   37.5680   23.5960 N   0  0  0  0  0  0  0  0  0  0  0  0
   33.7770   38.9120   23.8110 C   0  0  0  0  0  0  0  0  0  0  0  0
   33.4740   39.4740   25.0330 N   0  0  0  0  0  0  0  0  0  0  0  0
   32.6130   38.8080   26.0730 C   0  0  0  0  0  0  0  0  0  0  0  0
   33.5800   40.2700   27.9920 C   0  0  0  0  0  0  0  0  0  0  0  0
   33.2000   40.8220   29.2650 O   0  0  0  0  0  0  0  0  0  0  0  0
   32.8150   35.4950   27.9350 O   0  0  0  0  0  0  0  0  0  0  0  0
   35.9020   36.1120   14.7690 H   0  0  0  0  0  0  0  0  0  0  0  0
   34.2750   37.6980   26.9810 H   0  0  0  0  0  0  0  0  0  0  0  0
   33.3460   36.7850   25.7380 H   0  0  0  0  0  0  0  0  0  0  0  0
   32.5130   37.3350   28.6690 H   0  0  0  0  0  0  0  0  0  0  0  0
   31.3080   36.8190   27.3720 H   0  0  0  0  0  0  0  0  0  0  0  0
   31.8750   40.7410   26.7330 H   0  0  0  0  0  0  0  0  0  0  0  0
   31.5940   39.3940   27.8980 H   0  0  0  0  0  0  0  0  0  0  0  0
   32.1140   35.3870   23.4910 H   0  0  0  0  0  0  0  0  0  0  0  0
   32.8110   33.8400   22.8190 H   0  0  0  0  0  0  0  0  0  0  0  0
   33.6720   34.7230   24.1700 H   0  0  0  0  0  0  0  0  0  0  0  0
   39.3710   37.0210   17.2310 H   0  0  0  0  0  0  0  0  0  0  0  0
   38.1770   36.2090   19.2580 H   0  0  0  0  0  0  0  0  0  0  0  0
   35.8320   37.7920   19.5930 H   0  0  0  0  0  0  0  0  0  0  0  0
   35.2660   39.8530   20.9660 H   0  0  0  0  0  0  0  0  0  0  0  0
   33.5680   40.5060   25.1310 H   0  0  0  0  0  0  0  0  0  0  0  0
   31.6220   38.5560   25.5930 H   0  0  0  0  0  0  0  0  0  0  0  0
   34.2140   39.4020   28.2820 H   0  0  0  0  0  0  0  0  0  0  0  0
   34.1640   41.0350   27.4320 H   0  0  0  0  0  0  0  0  0  0  0  0
   32.6910   41.6790   29.0960 H   0  0  0  0  0  0  0  0  0  0  0  0
   32.7650   34.9740   27.0910 H   0  0  0  0  0  0  0  0  0  0  0  0
  1  2  2  0  0  0  0
  1  8  1  0  0  0  0
  1 30  1  0  0  0  0
  2  9  1  0  0  0  0
  2 10  1  0  0  0  0
  3  4  1  0  0  0  0
  3 26  1  0  0  0  0
  3 31  1  0  0  0  0
  3 32  1  0  0  0  0
  4 29  1  0  0  0  0
  4 33  1  0  0  0  0
  4 34  1  0  0  0  0
  5 26  1  0  0  0  0
  5 27  1  0  0  0  0
  5 35  1  0  0  0  0
  5 36  1  0  0  0  0
  6 21  1  0  0  0  0
  6 37  1  0  0  0  0
  6 38  1  0  0  0  0
  6 39  1  0  0  0  0
  7  8  1  0  0  0  0
  8 12  2  0  0  0  0
 10 11  2  0  0  0  0
 10 40  1  0  0  0  0
 11 12  1  0  0  0  0
 11 41  1  0  0  0  0
 12 13  1  0  0  0  0
 13 14  1  0  0  0  0
 14 15  2  0  0  0  0
 14 19  1  0  0  0  0
 15 16  1  0  0  0  0
 15 42  1  0  0  0  0
 16 17  2  0  0  0  0
 16 22  1  0  0  0  0
 17 18  1  0  0  0  0
 17 43  1  0  0  0  0
 18 24  2  0  0  0  0
 19 20  2  0  0  0  0
 19 21  1  0  0  0  0
 21 22  1  0  0  0  0
 22 23  2  0  0  0  0
 23 24  1  0  0  0  0
 24 25  1  0  0  0  0
 25 26  1  0  0  0  0
 25 44  1  0  0  0  0
 26 45  1  0  0  0  0
 27 28  1  0  0  0  0
 27 46  1  0  0  0  0
 27 47  1  0  0  0  0
 28 48  1  0  0  0  0
 29 49  1  0  0  0  0
M  END
$$$$
