CAT-24
 OpenBabel04222415263D
Structure written by MMmdl.
 47 50  0  0  1  0  0  0  0  0999 V2000
   15.3830    5.1780    2.5240 C   0  0  0  0  0  0  0  0  0  0  0  0
   15.1090    4.7710    1.1830 C   0  0  0  0  0  0  0  0  0  0  0  0
   14.8900    4.4120    0.0500 C   0  0  0  0  0  0  0  0  0  0  0  0
   14.6840    3.8410   -1.2210 C   0  0  0  0  0  0  0  0  0  0  0  0
   14.0670    4.5230   -2.2990 C   0  0  0  0  0  0  0  0  0  0  0  0
   13.8890    3.9400   -3.5100 N   0  0  0  0  0  0  0  0  0  0  0  0
   14.2950    2.6570   -3.6940 C   0  0  0  0  0  0  0  0  0  0  0  0
   14.8870    1.9010   -2.6620 C   0  0  0  0  0  0  0  0  0  0  0  0
   15.2760    0.4870   -2.8160 C   0  0  0  0  0  0  0  0  0  0  0  0
   16.1190    0.0630   -3.8560 C   0  0  0  0  0  0  0  0  0  0  0  0
   16.5590   -1.2620   -3.8960 C   0  0  0  0  0  0  0  0  0  0  0  0
   16.1390   -2.1870   -2.9350 C   0  0  0  0  0  0  0  0  0  0  0  0
   15.2500   -1.7820   -1.9310 C   0  0  0  0  0  0  0  0  0  0  0  0
   14.7160   -2.7620   -0.9090 C   0  0  1  0  0  0  0  0  0  0  0  0
   14.9640   -4.2330   -1.2110 C   0  0  0  0  0  0  0  0  0  0  0  0
   14.8030   -5.2890   -0.1240 C   0  0  0  0  0  0  0  0  0  0  0  0
   16.1780   -4.9550   -0.6550 C   0  0  0  0  0  0  0  0  0  0  0  0
   15.1900   -2.3530    0.4670 N   0  3  0  0  0  0  0  0  0  0  0  0
   14.1220   -2.4050    1.3740 C   0  0  0  0  0  0  0  0  0  0  0  0
   14.3000   -2.4430    2.7250 N   0  0  0  0  0  0  0  0  0  0  0  0
   12.9150   -2.4690    0.6830 N   0  0  0  0  0  0  0  0  0  0  0  0
   11.5890   -2.5180    1.3320 C   0  0  0  0  0  0  0  0  0  0  0  0
   13.1610   -2.6230   -0.7680 C   0  0  0  0  0  0  0  0  0  0  0  0
   12.2770   -2.6290   -1.5610 O   0  0  0  0  0  0  0  0  0  0  0  0
   14.8350   -0.4440   -1.8620 C   0  0  0  0  0  0  0  0  0  0  0  0
   15.0990    2.5150   -1.4210 C   0  0  0  0  0  0  0  0  0  0  0  0
   15.2330    6.2770    2.6490 H   0  0  0  0  0  0  0  0  0  0  0  0
   14.7210    4.6160    3.2350 H   0  0  0  0  0  0  0  0  0  0  0  0
   16.4410    4.9200    2.8060 H   0  0  0  0  0  0  0  0  0  0  0  0
   13.7040    5.5580   -2.1800 H   0  0  0  0  0  0  0  0  0  0  0  0
   14.1320    2.2190   -4.6930 H   0  0  0  0  0  0  0  0  0  0  0  0
   16.4530    0.7650   -4.6270 H   0  0  0  0  0  0  0  0  0  0  0  0
   17.2520   -1.5740   -4.6820 H   0  0  0  0  0  0  0  0  0  0  0  0
   16.5100   -3.2140   -2.9640 H   0  0  0  0  0  0  0  0  0  0  0  0
   14.6310   -4.5000   -2.2300 H   0  0  0  0  0  0  0  0  0  0  0  0
   14.3330   -6.2450   -0.3960 H   0  0  0  0  0  0  0  0  0  0  0  0
   14.5430   -4.9840    0.8980 H   0  0  0  0  0  0  0  0  0  0  0  0
   16.8840   -4.4090   -0.0260 H   0  0  0  0  0  0  0  0  0  0  0  0
   16.7110   -5.6610   -1.2900 H   0  0  0  0  0  0  0  0  0  0  0  0
   16.1380   -2.6530    0.8240 H   0  0  0  0  0  0  0  0  0  0  0  0
   13.5900   -2.0540    3.3920 H   0  0  0  0  0  0  0  0  0  0  0  0
   10.9650   -3.3120    0.8380 H   0  0  0  0  0  0  0  0  0  0  0  0
   11.6850   -2.7750    2.4200 H   0  0  0  0  0  0  0  0  0  0  0  0
   11.0870   -1.5190    1.2280 H   0  0  0  0  0  0  0  0  0  0  0  0
   14.1830   -0.1230   -1.0460 H   0  0  0  0  0  0  0  0  0  0  0  0
   15.5800    1.9620   -0.6080 H   0  0  0  0  0  0  0  0  0  0  0  0
   15.2840   -2.3650    3.1070 H   0  0  0  0  0  0  0  0  0  0  0  0
  1  2  1  0  0  0  0
  1 27  1  0  0  0  0
  1 28  1  0  0  0  0
  1 29  1  0  0  0  0
  2  3  3  0  0  0  0
  3  4  1  0  0  0  0
  4  5  2  0  0  0  0
  4 26  1  0  0  0  0
  5  6  1  0  0  0  0
  5 30  1  0  0  0  0
  6  7  2  0  0  0  0
  7  8  1  0  0  0  0
  7 31  1  0  0  0  0
  8  9  1  0  0  0  0
  8 26  2  0  0  0  0
  9 10  2  0  0  0  0
  9 25  1  0  0  0  0
 10 11  1  0  0  0  0
 10 32  1  0  0  0  0
 11 12  2  0  0  0  0
 11 33  1  0  0  0  0
 12 13  1  0  0  0  0
 12 34  1  0  0  0  0
 13 25  2  0  0  0  0
 14 13  1  6  0  0  0
 14 15  1  0  0  0  0
 14 18  1  0  0  0  0
 14 23  1  0  0  0  0
 15 16  1  0  0  0  0
 15 17  1  0  0  0  0
 15 35  1  0  0  0  0
 16 17  1  0  0  0  0
 16 36  1  0  0  0  0
 16 37  1  0  0  0  0
 17 38  1  0  0  0  0
 17 39  1  0  0  0  0
 18 19  2  0  0  0  0
 18 40  1  0  0  0  0
 19 20  1  0  0  0  0
 19 21  1  0  0  0  0
 20 41  1  0  0  0  0
 20 47  1  0  0  0  0
 21 22  1  0  0  0  0
 21 23  1  0  0  0  0
 22 42  1  0  0  0  0
 22 43  1  0  0  0  0
 22 44  1  0  0  0  0
 23 24  2  0  0  0  0
 25 45  1  0  0  0  0
 26 46  1  0  0  0  0
M  CHG  1  18   1
M  END
$$$$
