p38a_2h
 OpenBabel02232411163D
Structure written by MMmdl.
 46 49  0  0  0  0  0  0  0  0999 V2000
   31.9450   39.2140   26.3710 C   0  0  0  0  0  0  0  0  0  0  0  0
   31.4910   38.5950   27.6980 C   0  0  0  0  0  0  0  0  0  0  0  0
   33.6170   39.0720   28.7460 C   0  0  0  0  0  0  0  0  0  0  0  0
   34.1680   39.7150   27.4670 C   0  0  0  0  0  0  0  0  0  0  0  0
   38.3560   36.3570   17.4530 C   0  0  0  0  0  0  0  0  0  0  0  0
   32.1780   39.1830   28.8260 O   0  0  0  0  0  0  0  0  0  0  0  0
   34.3530   35.0880   21.2050 C   0  0  0  0  0  0  0  0  0  0  0  0
   37.2660   35.9000   18.1940 C   0  0  0  0  0  0  0  0  0  0  0  0
   34.0970   39.1750   23.7990 C   0  0  0  0  0  0  0  0  0  0  0  0
   33.4800   39.0860   26.2370 C   0  0  0  0  0  0  0  0  0  0  0  0
   34.4790   37.9600   21.3490 C   0  0  0  0  0  0  0  0  0  0  0  0
   34.6390   37.2910   20.0940 C   0  0  0  0  0  0  0  0  0  0  0  0
   38.1370   36.6780   16.1080 C   0  0  0  0  0  0  0  0  0  0  0  0
   36.8680   36.5390   15.5380 C   0  0  0  0  0  0  0  0  0  0  0  0
   35.7890   36.0760   16.3010 C   0  0  0  0  0  0  0  0  0  0  0  0
   34.2470   37.1920   22.5340 C   0  0  0  0  0  0  0  0  0  0  0  0
   34.5140   39.3780   21.4960 C   0  0  0  0  0  0  0  0  0  0  0  0
   34.5740   35.9350   20.0330 C   0  0  0  0  0  0  0  0  0  0  0  0
   35.9890   35.7440   17.6440 C   0  0  0  0  0  0  0  0  0  0  0  0
   34.0090   35.0250   23.7240 C   0  0  0  0  0  0  0  0  0  0  0  0
   37.4310   35.5860   19.4770 F   0  0  0  0  0  0  0  0  0  0  0  0
   34.6510   35.0460   18.5280 S   0  0  0  0  0  0  0  0  0  0  0  0
   34.3330   39.9940   22.6690 N   0  0  0  0  0  0  0  0  0  0  0  0
   34.2690   33.8780   21.2350 O   0  0  0  0  0  0  0  0  0  0  0  0
   34.2130   35.8010   22.4680 N   0  0  0  0  0  0  0  0  0  0  0  0
   34.0450   37.7970   23.7520 N   0  0  0  0  0  0  0  0  0  0  0  0
   33.9560   39.8000   25.0130 N   0  0  0  0  0  0  0  0  0  0  0  0
   31.4390   38.6850   25.5290 H   0  0  0  0  0  0  0  0  0  0  0  0
   31.6600   40.2910   26.3360 H   0  0  0  0  0  0  0  0  0  0  0  0
   30.4280   38.8390   27.9210 H   0  0  0  0  0  0  0  0  0  0  0  0
   31.6640   37.4930   27.7040 H   0  0  0  0  0  0  0  0  0  0  0  0
   33.9000   37.9950   28.8040 H   0  0  0  0  0  0  0  0  0  0  0  0
   33.9500   39.6300   29.6520 H   0  0  0  0  0  0  0  0  0  0  0  0
   33.9860   40.8170   27.4880 H   0  0  0  0  0  0  0  0  0  0  0  0
   35.2720   39.5490   27.4140 H   0  0  0  0  0  0  0  0  0  0  0  0
   39.3460   36.4940   17.8920 H   0  0  0  0  0  0  0  0  0  0  0  0
   33.7660   37.9990   26.1670 H   0  0  0  0  0  0  0  0  0  0  0  0
   34.8160   37.9070   19.2050 H   0  0  0  0  0  0  0  0  0  0  0  0
   36.7070   36.8140   14.4960 H   0  0  0  0  0  0  0  0  0  0  0  0
   34.8010   35.9930   15.8370 H   0  0  0  0  0  0  0  0  0  0  0  0
   34.6870   40.0180   20.6120 H   0  0  0  0  0  0  0  0  0  0  0  0
   34.7780   35.3180   24.4900 H   0  0  0  0  0  0  0  0  0  0  0  0
   32.9910   35.2400   24.1490 H   0  0  0  0  0  0  0  0  0  0  0  0
   34.0980   33.9260   23.5200 H   0  0  0  0  0  0  0  0  0  0  0  0
   33.9030   40.8370   25.0580 H   0  0  0  0  0  0  0  0  0  0  0  0
   38.9570   37.0610   15.5050 H   0  0  0  0  0  0  0  0  0  0  0  0
  1  2  1  0  0  0  0
  1 10  1  0  0  0  0
  1 28  1  0  0  0  0
  1 29  1  0  0  0  0
  2  6  1  0  0  0  0
  2 30  1  0  0  0  0
  2 31  1  0  0  0  0
  3  4  1  0  0  0  0
  3  6  1  0  0  0  0
  3 32  1  0  0  0  0
  3 33  1  0  0  0  0
  4 10  1  0  0  0  0
  4 34  1  0  0  0  0
  4 35  1  0  0  0  0
  5  8  2  0  0  0  0
  5 13  1  0  0  0  0
  5 36  1  0  0  0  0
  7 18  1  0  0  0  0
  7 24  2  0  0  0  0
  7 25  1  0  0  0  0
  8 19  1  0  0  0  0
  8 21  1  0  0  0  0
  9 23  2  0  0  0  0
  9 26  1  0  0  0  0
  9 27  1  0  0  0  0
 10 27  1  0  0  0  0
 10 37  1  0  0  0  0
 11 12  1  0  0  0  0
 11 16  1  0  0  0  0
 11 17  2  0  0  0  0
 12 18  2  0  0  0  0
 12 38  1  0  0  0  0
 13 14  2  0  0  0  0
 13 46  1  0  0  0  0
 14 15  1  0  0  0  0
 14 39  1  0  0  0  0
 15 19  2  0  0  0  0
 15 40  1  0  0  0  0
 16 25  1  0  0  0  0
 16 26  2  0  0  0  0
 17 23  1  0  0  0  0
 17 41  1  0  0  0  0
 18 22  1  0  0  0  0
 19 22  1  0  0  0  0
 20 25  1  0  0  0  0
 20 42  1  0  0  0  0
 20 43  1  0  0  0  0
 20 44  1  0  0  0  0
 27 45  1  0  0  0  0
M  END
$$$$
