18632-1
 OpenBabel02232411163D
Structure written by MMmdl.
 42 43  0  0  0  0  0  0  0  0999 V2000
   23.1910   10.8590   29.0650 C   0  0  0  0  0  0  0  0  0  0  0  0
   23.4720   11.0710   30.5370 C   0  0  0  0  0  0  0  0  0  0  0  0
   22.2080   11.1370   31.3020 O   0  0  0  0  0  0  0  0  0  0  0  0
   21.5650    9.9980   31.6340 C   0  0  0  0  0  0  0  0  0  0  0  0
   22.0370    8.8060   31.1990 N   0  0  0  0  0  0  0  0  0  0  0  0
   21.3020    7.6730   31.5130 C   0  0  0  0  0  0  0  0  0  0  0  0
   20.1440    7.7160   32.2830 C   0  0  0  0  0  0  0  0  0  0  0  0
   19.6640    8.9700   32.7480 C   0  0  0  0  0  0  0  0  0  0  0  0
   18.5060    9.0220   33.4830 N   0  0  0  0  0  0  0  0  0  0  0  0
   20.3850   10.1620   32.4210 C   0  0  0  0  0  0  0  0  0  0  0  0
   19.9880   11.4620   32.7960 C   0  0  0  0  0  0  0  0  0  0  0  0
   19.7130   12.5570   33.0630 N   0  0  0  0  0  0  0  0  0  0  0  0
   21.8650    6.5110   30.9330 N   0  0  0  0  0  0  0  0  0  0  0  0
   21.2780    5.2230   30.8830 C   0  0  0  0  0  0  0  0  0  0  0  0
   20.2370    4.9610   31.4460 O   0  0  0  0  0  0  0  0  0  0  0  0
   22.0390    4.2450   30.0030 C   0  0  0  0  0  0  0  0  0  0  0  0
   23.3830    3.8680   30.5710 C   0  0  0  0  0  0  0  0  0  0  0  0
   24.5300    4.5610   30.1780 C   0  0  0  0  0  0  0  0  0  0  0  0
   25.7730    4.1850   30.7300 C   0  0  0  0  0  0  0  0  0  0  0  0
   26.8170    4.9280   30.2290 O   0  0  0  0  0  0  0  0  0  0  0  0
   28.1560    4.6390   30.7090 C   0  0  0  0  0  0  0  0  0  0  0  0
   25.8800    3.1520   31.6690 C   0  0  0  0  0  0  0  0  0  0  0  0
   24.7180    2.4650   32.0350 C   0  0  0  0  0  0  0  0  0  0  0  0
   23.4800    2.8070   31.4870 C   0  0  0  0  0  0  0  0  0  0  0  0
   24.1350   11.0130   28.4840 H   0  0  0  0  0  0  0  0  0  0  0  0
   22.8280    9.8240   28.8640 H   0  0  0  0  0  0  0  0  0  0  0  0
   22.4350   11.5830   28.6870 H   0  0  0  0  0  0  0  0  0  0  0  0
   24.1250   10.2780   30.9650 H   0  0  0  0  0  0  0  0  0  0  0  0
   23.8590   12.0980   30.7490 H   0  0  0  0  0  0  0  0  0  0  0  0
   19.5870    6.8070   32.5190 H   0  0  0  0  0  0  0  0  0  0  0  0
   18.0090    8.1550   33.7640 H   0  0  0  0  0  0  0  0  0  0  0  0
   18.1150    9.9110   33.7960 H   0  0  0  0  0  0  0  0  0  0  0  0
   22.7680    6.6610   30.4400 H   0  0  0  0  0  0  0  0  0  0  0  0
   21.4190    3.3170   29.8840 H   0  0  0  0  0  0  0  0  0  0  0  0
   22.1640    4.7090   28.9890 H   0  0  0  0  0  0  0  0  0  0  0  0
   24.4950    5.3730   29.4510 H   0  0  0  0  0  0  0  0  0  0  0  0
   28.4400    3.5950   30.4510 H   0  0  0  0  0  0  0  0  0  0  0  0
   28.7660    5.3740   30.1320 H   0  0  0  0  0  0  0  0  0  0  0  0
   28.2210    4.8290   31.8010 H   0  0  0  0  0  0  0  0  0  0  0  0
   26.8340    2.8630   32.1110 H   0  0  0  0  0  0  0  0  0  0  0  0
   24.7860    1.6440   32.7570 H   0  0  0  0  0  0  0  0  0  0  0  0
   22.5990    2.2300   31.7670 H   0  0  0  0  0  0  0  0  0  0  0  0
  1  2  1  0  0  0  0
  1 25  1  0  0  0  0
  1 26  1  0  0  0  0
  1 27  1  0  0  0  0
  2  3  1  0  0  0  0
  2 28  1  0  0  0  0
  2 29  1  0  0  0  0
  3  4  1  0  0  0  0
  4 10  2  0  0  0  0
  4  5  1  0  0  0  0
  5  6  2  0  0  0  0
  6  7  1  0  0  0  0
  6 13  1  0  0  0  0
  7  8  2  0  0  0  0
  7 30  1  0  0  0  0
  8  9  1  0  0  0  0
  8 10  1  0  0  0  0
  9 31  1  0  0  0  0
  9 32  1  0  0  0  0
 10 11  1  0  0  0  0
 11 12  3  0  0  0  0
 13 14  1  0  0  0  0
 13 33  1  0  0  0  0
 14 15  2  0  0  0  0
 14 16  1  0  0  0  0
 16 17  1  0  0  0  0
 16 34  1  0  0  0  0
 16 35  1  0  0  0  0
 17 24  2  0  0  0  0
 17 18  1  0  0  0  0
 18 19  2  0  0  0  0
 18 36  1  0  0  0  0
 19 20  1  0  0  0  0
 19 22  1  0  0  0  0
 20 21  1  0  0  0  0
 21 37  1  0  0  0  0
 21 38  1  0  0  0  0
 21 39  1  0  0  0  0
 22 23  2  0  0  0  0
 22 40  1  0  0  0  0
 23 24  1  0  0  0  0
 23 41  1  0  0  0  0
 24 42  1  0  0  0  0
M  END
$$$$
