p38a_3flw
 OpenBabel02232411163D
Structure written by MMmdl.
 49 51  0  0  0  0  0  0  0  0999 V2000
   38.2890   36.5170   17.1820 C   0  0  0  0  0  0  0  0  0  0  0  0
   37.6380   36.6630   15.9490 C   0  0  0  0  0  0  0  0  0  0  0  0
   31.6390   38.5610   25.6550 C   0  0  0  0  0  0  0  0  0  0  0  0
   30.7900   39.0250   24.4650 C   0  0  0  0  0  0  0  0  0  0  0  0
   33.7180   38.9050   27.0670 C   0  0  0  0  0  0  0  0  0  0  0  0
   33.6280   35.1100   23.6190 C   0  0  0  0  0  0  0  0  0  0  0  0
   38.0480   35.9370   19.4490 F   0  0  0  0  0  0  0  0  0  0  0  0
   37.5130   36.0550   18.2410 C   0  0  0  0  0  0  0  0  0  0  0  0
   38.3280   37.1720   14.9310 F   0  0  0  0  0  0  0  0  0  0  0  0
   36.2940   36.3420   15.7460 C   0  0  0  0  0  0  0  0  0  0  0  0
   35.5400   35.8640   16.8230 C   0  0  0  0  0  0  0  0  0  0  0  0
   36.1550   35.7120   18.0690 C   0  0  0  0  0  0  0  0  0  0  0  0
   35.4410   35.0910   19.1040 O   0  0  0  0  0  0  0  0  0  0  0  0
   35.0470   35.9330   20.1450 C   0  0  0  0  0  0  0  0  0  0  0  0
   35.1010   37.2850   20.1640 C   0  0  0  0  0  0  0  0  0  0  0  0
   34.6870   37.9760   21.3520 C   0  0  0  0  0  0  0  0  0  0  0  0
   34.7190   39.3930   21.4650 C   0  0  0  0  0  0  0  0  0  0  0  0
   34.3680   40.0400   22.5810 N   0  0  0  0  0  0  0  0  0  0  0  0
   34.5150   35.1030   21.2560 C   0  0  0  0  0  0  0  0  0  0  0  0
   34.3760   33.8980   21.2320 O   0  0  0  0  0  0  0  0  0  0  0  0
   34.1490   35.8440   22.4330 N   0  0  0  0  0  0  0  0  0  0  0  0
   34.2340   37.2460   22.4890 C   0  0  0  0  0  0  0  0  0  0  0  0
   33.8660   37.8770   23.6540 N   0  0  0  0  0  0  0  0  0  0  0  0
   33.9320   39.2530   23.6740 C   0  0  0  0  0  0  0  0  0  0  0  0
   33.6230   39.9630   24.8090 N   0  0  0  0  0  0  0  0  0  0  0  0
   32.8080   39.5090   25.9790 C   0  0  0  0  0  0  0  0  0  0  0  0
   34.8850   39.8150   27.4770 C   0  0  0  0  0  0  0  0  0  0  0  0
   34.4730   41.1720   27.7320 O   0  0  0  0  0  0  0  0  0  0  0  0
   30.7470   40.4570   24.3890 O   0  0  0  0  0  0  0  0  0  0  0  0
   39.3400   36.7910   17.3140 H   0  0  0  0  0  0  0  0  0  0  0  0
   30.9980   38.4900   26.5700 H   0  0  0  0  0  0  0  0  0  0  0  0
   32.0210   37.5290   25.4410 H   0  0  0  0  0  0  0  0  0  0  0  0
   31.2710   38.7530   23.4980 H   0  0  0  0  0  0  0  0  0  0  0  0
   29.7590   38.6180   24.5370 H   0  0  0  0  0  0  0  0  0  0  0  0
   33.0810   38.6830   27.9610 H   0  0  0  0  0  0  0  0  0  0  0  0
   34.1380   37.9290   26.7100 H   0  0  0  0  0  0  0  0  0  0  0  0
   32.5470   35.3710   23.7860 H   0  0  0  0  0  0  0  0  0  0  0  0
   33.7190   34.0040   23.4650 H   0  0  0  0  0  0  0  0  0  0  0  0
   34.2050   35.4000   24.5390 H   0  0  0  0  0  0  0  0  0  0  0  0
   35.8210   36.4740   14.7710 H   0  0  0  0  0  0  0  0  0  0  0  0
   34.4790   35.6320   16.6850 H   0  0  0  0  0  0  0  0  0  0  0  0
   35.4540   37.8770   19.3180 H   0  0  0  0  0  0  0  0  0  0  0  0
   35.0300   40.0000   20.6000 H   0  0  0  0  0  0  0  0  0  0  0  0
   33.6520   41.0000   24.7510 H   0  0  0  0  0  0  0  0  0  0  0  0
   32.3530   40.4670   26.3780 H   0  0  0  0  0  0  0  0  0  0  0  0
   35.3050   39.4880   28.4570 H   0  0  0  0  0  0  0  0  0  0  0  0
   35.6620   39.8370   26.6810 H   0  0  0  0  0  0  0  0  0  0  0  0
   34.1480   41.5560   26.8630 H   0  0  0  0  0  0  0  0  0  0  0  0
   29.9970   40.8100   24.9480 H   0  0  0  0  0  0  0  0  0  0  0  0
  1  2  2  0  0  0  0
  1  8  1  0  0  0  0
  1 30  1  0  0  0  0
  2  9  1  0  0  0  0
  2 10  1  0  0  0  0
  3  4  1  0  0  0  0
  3 26  1  0  0  0  0
  3 31  1  0  0  0  0
  3 32  1  0  0  0  0
  4 29  1  0  0  0  0
  4 33  1  0  0  0  0
  4 34  1  0  0  0  0
  5 26  1  0  0  0  0
  5 27  1  0  0  0  0
  5 35  1  0  0  0  0
  5 36  1  0  0  0  0
  6 21  1  0  0  0  0
  6 37  1  0  0  0  0
  6 38  1  0  0  0  0
  6 39  1  0  0  0  0
  7  8  1  0  0  0  0
  8 12  2  0  0  0  0
 10 11  2  0  0  0  0
 10 40  1  0  0  0  0
 11 12  1  0  0  0  0
 11 41  1  0  0  0  0
 12 13  1  0  0  0  0
 13 14  1  0  0  0  0
 14 15  2  0  0  0  0
 14 19  1  0  0  0  0
 15 16  1  0  0  0  0
 15 42  1  0  0  0  0
 16 17  2  0  0  0  0
 16 22  1  0  0  0  0
 17 18  1  0  0  0  0
 17 43  1  0  0  0  0
 18 24  2  0  0  0  0
 19 20  2  0  0  0  0
 19 21  1  0  0  0  0
 21 22  1  0  0  0  0
 22 23  2  0  0  0  0
 23 24  1  0  0  0  0
 24 25  1  0  0  0  0
 25 26  1  0  0  0  0
 25 44  1  0  0  0  0
 26 45  1  0  0  0  0
 27 28  1  0  0  0  0
 27 46  1  0  0  0  0
 27 47  1  0  0  0  0
 28 48  1  0  0  0  0
 29 49  1  0  0  0  0
M  END
$$$$
