p38a_3fmh
 OpenBabel02232411163D
Structure written by MMmdl.
 46 49  0  0  1  0  0  0  0  0999 V2000
   38.2630   37.2220   14.7720 F   0  0  0  0  0  0  0  0  0  0  0  0
   37.6770   36.6510   15.8210 C   0  0  0  0  0  0  0  0  0  0  0  0
   38.3610   36.6300   17.0400 C   0  0  0  0  0  0  0  0  0  0  0  0
   37.7110   36.1260   18.1720 C   0  0  0  0  0  0  0  0  0  0  0  0
   36.3860   36.1350   15.6510 C   0  0  0  0  0  0  0  0  0  0  0  0
   35.7760   35.6020   16.7820 C   0  0  0  0  0  0  0  0  0  0  0  0
   34.5680   35.0610   16.7050 F   0  0  0  0  0  0  0  0  0  0  0  0
   36.4190   35.6100   18.0360 C   0  0  0  0  0  0  0  0  0  0  0  0
   35.7400   34.9640   19.0800 O   0  0  0  0  0  0  0  0  0  0  0  0
   35.2460   35.8030   20.0750 C   0  0  0  0  0  0  0  0  0  0  0  0
   34.5670   34.9590   21.0980 C   0  0  0  0  0  0  0  0  0  0  0  0
   34.3630   33.7690   21.0010 O   0  0  0  0  0  0  0  0  0  0  0  0
   34.1430   35.6730   22.2720 N   0  0  0  0  0  0  0  0  0  0  0  0
   33.5520   34.9160   23.4120 C   0  0  0  0  0  0  0  0  0  0  0  0
   34.2750   37.0670   22.3800 C   0  0  0  0  0  0  0  0  0  0  0  0
   33.8650   37.6700   23.5450 N   0  0  0  0  0  0  0  0  0  0  0  0
   35.3320   37.1510   20.1380 C   0  0  0  0  0  0  0  0  0  0  0  0
   34.8170   37.8240   21.3000 C   0  0  0  0  0  0  0  0  0  0  0  0
   34.8410   39.2350   21.4510 C   0  0  0  0  0  0  0  0  0  0  0  0
   34.4550   39.8530   22.5800 N   0  0  0  0  0  0  0  0  0  0  0  0
   34.0170   39.0360   23.6350 C   0  0  0  0  0  0  0  0  0  0  0  0
   33.8010   39.6570   24.8580 N   0  0  0  0  0  0  0  0  0  0  0  0
   32.9350   39.0250   25.9030 C   0  0  2  0  0  0  0  0  0  0  0  0
   31.4660   39.3720   25.6560 C   0  0  0  0  0  0  0  0  0  0  0  0
   33.4770   39.5910   27.2510 C   0  0  0  0  0  0  0  0  0  0  0  0
   32.7390   39.0740   28.4250 N   0  0  0  0  0  0  0  0  0  0  0  0
   32.3640   37.7770   28.5920 N   0  0  0  0  0  0  0  0  0  0  0  0
   31.7640   37.7560   29.8170 C   0  0  0  0  0  0  0  0  0  0  0  0
   31.8020   39.0620   30.3720 N   0  0  0  0  0  0  0  0  0  0  0  0
   32.3920   39.8340   29.5150 N   0  0  0  0  0  0  0  0  0  0  0  0
   39.3730   37.0330   17.1280 H   0  0  0  0  0  0  0  0  0  0  0  0
   38.2070   36.1670   19.1450 H   0  0  0  0  0  0  0  0  0  0  0  0
   35.8760   36.1720   14.6870 H   0  0  0  0  0  0  0  0  0  0  0  0
   34.1420   35.1120   24.3490 H   0  0  0  0  0  0  0  0  0  0  0  0
   32.4930   35.2520   23.5860 H   0  0  0  0  0  0  0  0  0  0  0  0
   33.5610   33.8180   23.1950 H   0  0  0  0  0  0  0  0  0  0  0  0
   35.7940   37.7590   19.3580 H   0  0  0  0  0  0  0  0  0  0  0  0
   35.1780   39.8730   20.6190 H   0  0  0  0  0  0  0  0  0  0  0  0
   33.7710   40.6990   24.8680 H   0  0  0  0  0  0  0  0  0  0  0  0
   33.0810   37.9070   25.8870 H   0  0  0  0  0  0  0  0  0  0  0  0
   30.8210   38.9280   26.4460 H   0  0  0  0  0  0  0  0  0  0  0  0
   31.3230   40.4750   25.6380 H   0  0  0  0  0  0  0  0  0  0  0  0
   31.1360   38.9520   24.6770 H   0  0  0  0  0  0  0  0  0  0  0  0
   34.5670   39.3080   27.3500 H   0  0  0  0  0  0  0  0  0  0  0  0
   33.4040   40.7170   27.2600 H   0  0  0  0  0  0  0  0  0  0  0  0
   31.3250   36.8880   30.3060 H   0  0  0  0  0  0  0  0  0  0  0  0
  1  2  1  0  0  0  0
  2  3  2  0  0  0  0
  2  5  1  0  0  0  0
  3  4  1  0  0  0  0
  3 31  1  0  0  0  0
  4  8  2  0  0  0  0
  4 32  1  0  0  0  0
  5  6  2  0  0  0  0
  5 33  1  0  0  0  0
  6  7  1  0  0  0  0
  6  8  1  0  0  0  0
  8  9  1  0  0  0  0
  9 10  1  0  0  0  0
 10 11  1  0  0  0  0
 10 17  2  0  0  0  0
 11 12  2  0  0  0  0
 11 13  1  0  0  0  0
 13 14  1  0  0  0  0
 13 15  1  0  0  0  0
 14 34  1  0  0  0  0
 14 35  1  0  0  0  0
 14 36  1  0  0  0  0
 15 16  2  0  0  0  0
 15 18  1  0  0  0  0
 16 21  1  0  0  0  0
 17 18  1  0  0  0  0
 17 37  1  0  0  0  0
 18 19  2  0  0  0  0
 19 20  1  0  0  0  0
 19 38  1  0  0  0  0
 20 21  2  0  0  0  0
 21 22  1  0  0  0  0
 22 23  1  0  0  0  0
 22 39  1  0  0  0  0
 23 24  1  0  0  0  0
 23 25  1  0  0  0  0
 23 40  1  6  0  0  0
 24 41  1  0  0  0  0
 24 42  1  0  0  0  0
 24 43  1  0  0  0  0
 25 26  1  0  0  0  0
 25 44  1  0  0  0  0
 25 45  1  0  0  0  0
 26 27  1  0  0  0  0
 26 30  1  0  0  0  0
 27 28  2  0  0  0  0
 28 29  1  0  0  0  0
 28 46  1  0  0  0  0
 29 30  2  0  0  0  0
M  END
$$$$
