p38a_2x
 OpenBabel02232411163D
Structure written by MMmdl.
 43 46  0  0  1  0  0  0  0  0999 V2000
   36.3600   36.0640   15.7810 C   0  0  0  0  0  0  0  0  0  0  0  0
   34.5570   34.9990   21.3200 C   0  0  0  0  0  0  0  0  0  0  0  0
   35.6860   35.5900   16.9020 C   0  0  0  0  0  0  0  0  0  0  0  0
   34.0500   39.0580   23.8970 C   0  0  0  0  0  0  0  0  0  0  0  0
   34.7550   37.8660   21.5130 C   0  0  0  0  0  0  0  0  0  0  0  0
   35.1940   37.2090   20.3110 C   0  0  0  0  0  0  0  0  0  0  0  0
   37.6560   36.5530   15.9910 C   0  0  0  0  0  0  0  0  0  0  0  0
   38.2870   36.5520   17.2380 C   0  0  0  0  0  0  0  0  0  0  0  0
   37.5740   36.1070   18.3580 C   0  0  0  0  0  0  0  0  0  0  0  0
   34.3370   37.0920   22.6370 C   0  0  0  0  0  0  0  0  0  0  0  0
   34.7370   39.2780   21.6660 C   0  0  0  0  0  0  0  0  0  0  0  0
   35.1290   35.8600   20.2470 C   0  0  0  0  0  0  0  0  0  0  0  0
   36.2730   35.6270   18.1840 C   0  0  0  0  0  0  0  0  0  0  0  0
   33.8460   34.9100   23.7410 C   0  0  0  0  0  0  0  0  0  0  0  0
   34.4680   35.0770   16.7900 F   0  0  0  0  0  0  0  0  0  0  0  0
   35.5230   35.0270   19.2030 O   0  0  0  0  0  0  0  0  0  0  0  0
   34.4000   39.8870   22.8150 N   0  0  0  0  0  0  0  0  0  0  0  0
   34.3380   33.8120   21.2240 O   0  0  0  0  0  0  0  0  0  0  0  0
   34.2560   35.6940   22.5420 N   0  0  0  0  0  0  0  0  0  0  0  0
   34.0000   37.6810   23.8310 N   0  0  0  0  0  0  0  0  0  0  0  0
   33.6690   39.6730   25.0770 N   0  0  0  0  0  0  0  0  0  0  0  0
   35.8960   36.0760   14.7920 H   0  0  0  0  0  0  0  0  0  0  0  0
   35.5810   37.8280   19.4980 H   0  0  0  0  0  0  0  0  0  0  0  0
   39.3100   36.9220   17.3490 H   0  0  0  0  0  0  0  0  0  0  0  0
   38.0310   36.1610   19.3480 H   0  0  0  0  0  0  0  0  0  0  0  0
   35.0080   39.9250   20.8160 H   0  0  0  0  0  0  0  0  0  0  0  0
   34.5320   35.1440   24.6020 H   0  0  0  0  0  0  0  0  0  0  0  0
   32.7980   35.1810   24.0410 H   0  0  0  0  0  0  0  0  0  0  0  0
   33.8970   33.8120   23.5230 H   0  0  0  0  0  0  0  0  0  0  0  0
   33.8340   40.6940   25.1830 H   0  0  0  0  0  0  0  0  0  0  0  0
   38.3000   37.0790   14.9520 F   0  0  0  0  0  0  0  0  0  0  0  0
   33.5860   39.3900   28.6820 O   0  0  0  0  0  0  0  0  0  0  0  0
   34.9310   38.9320   28.3610 C   0  0  0  0  0  0  0  0  0  0  0  0
   34.9090   38.4300   26.9110 C   0  0  0  0  0  0  0  0  0  0  0  0
   33.5440   38.8850   26.3330 C   0  0  1  0  0  0  0  0  0  0  0  0
   32.9080   39.7500   27.4540 C   0  0  0  0  0  0  0  0  0  0  0  0
   35.1290   38.1280   29.1010 H   0  0  0  0  0  0  0  0  0  0  0  0
   35.6190   39.7970   28.4930 H   0  0  0  0  0  0  0  0  0  0  0  0
   35.7610   38.8530   26.3350 H   0  0  0  0  0  0  0  0  0  0  0  0
   34.9870   37.3170   26.8670 H   0  0  0  0  0  0  0  0  0  0  0  0
   32.8970   37.9890   26.1170 H   0  0  0  0  0  0  0  0  0  0  0  0
   31.8420   39.4970   27.6360 H   0  0  0  0  0  0  0  0  0  0  0  0
   33.0550   40.8410   27.2920 H   0  0  0  0  0  0  0  0  0  0  0  0
  1  3  2  0  0  0  0
  1  7  1  0  0  0  0
  1 22  1  0  0  0  0
  2 12  1  0  0  0  0
  2 18  2  0  0  0  0
  2 19  1  0  0  0  0
  3 13  1  0  0  0  0
  3 15  1  0  0  0  0
  4 17  2  0  0  0  0
  4 20  1  0  0  0  0
  4 21  1  0  0  0  0
  5  6  1  0  0  0  0
  5 10  1  0  0  0  0
  5 11  2  0  0  0  0
  6 12  2  0  0  0  0
  6 23  1  0  0  0  0
  7  8  2  0  0  0  0
  7 31  1  0  0  0  0
  8  9  1  0  0  0  0
  8 24  1  0  0  0  0
  9 13  2  0  0  0  0
  9 25  1  0  0  0  0
 10 19  1  0  0  0  0
 10 20  2  0  0  0  0
 11 17  1  0  0  0  0
 11 26  1  0  0  0  0
 12 16  1  0  0  0  0
 13 16  1  0  0  0  0
 14 19  1  0  0  0  0
 14 27  1  0  0  0  0
 14 28  1  0  0  0  0
 14 29  1  0  0  0  0
 21 30  1  0  0  0  0
 21 35  1  0  0  0  0
 32 33  1  0  0  0  0
 32 36  1  0  0  0  0
 33 34  1  0  0  0  0
 33 37  1  0  0  0  0
 33 38  1  0  0  0  0
 34 35  1  0  0  0  0
 34 39  1  0  0  0  0
 34 40  1  0  0  0  0
 35 36  1  0  0  0  0
 35 41  1  1  0  0  0
 36 42  1  0  0  0  0
 36 43  1  0  0  0  0
M  END
$$$$
