46
 OpenBabel02232411163D
Structure written by MMmdl.
 45 48  0  0  0  0  0  0  0  0999 V2000
    3.5240  -48.3680    7.1490 O   0  0  0  0  0  0  0  0  0  0  0  0
    3.1290  -49.3170    6.4590 C   0  0  0  0  0  0  0  0  0  0  0  0
    3.8340  -50.1340    5.8360 O   0  5  0  0  0  0  0  0  0  0  0  0
    1.6110  -49.5610    6.3590 C   0  0  0  0  0  0  0  0  0  0  0  0
   -0.2960  -50.8170    6.5130 C   0  0  0  0  0  0  0  0  0  0  0  0
   -1.2580  -51.8170    6.7410 C   0  0  0  0  0  0  0  0  0  0  0  0
   -2.5760  -51.5170    6.4310 C   0  0  0  0  0  0  0  0  0  0  0  0
   -2.9370  -50.2550    5.9020 C   0  0  0  0  0  0  0  0  0  0  0  0
   -1.9920  -49.2630    5.6780 C   0  0  0  0  0  0  0  0  0  0  0  0
   -0.6470  -49.5210    5.9870 C   0  0  0  0  0  0  0  0  0  0  0  0
    0.5750  -48.7480    5.9150 C   0  0  0  0  0  0  0  0  0  0  0  0
    0.6340  -47.3340    5.4570 C   0  0  0  0  0  0  0  0  0  0  0  0
    0.5990  -46.3280    6.6220 C   0  0  0  0  0  0  0  0  0  0  0  0
   -0.7100  -46.3480    7.4070 C   0  0  0  0  0  0  0  0  0  0  0  0
   -1.6960  -45.7760    6.4730 O   0  0  0  0  0  0  0  0  0  0  0  0
   -2.9660  -45.5670    6.9250 C   0  0  0  0  0  0  0  0  0  0  0  0
   -4.8040  -45.7370    8.4930 C   0  0  0  0  0  0  0  0  0  0  0  0
   -3.4690  -46.0110    8.1580 C   0  0  0  0  0  0  0  0  0  0  0  0
   -0.9860  -52.7900    7.1490 H   0  0  0  0  0  0  0  0  0  0  0  0
   -3.3580  -52.2590    6.5990 H   0  0  0  0  0  0  0  0  0  0  0  0
   -3.9870  -50.0700    5.6710 H   0  0  0  0  0  0  0  0  0  0  0  0
   -2.3000  -48.2970    5.2720 H   0  0  0  0  0  0  0  0  0  0  0  0
   -0.2530  -47.1270    4.8030 H   0  0  0  0  0  0  0  0  0  0  0  0
    1.5610  -47.1460    4.8650 H   0  0  0  0  0  0  0  0  0  0  0  0
    1.4250  -46.5610    7.3370 H   0  0  0  0  0  0  0  0  0  0  0  0
    0.7350  -45.3000    6.2130 H   0  0  0  0  0  0  0  0  0  0  0  0
   -0.6740  -45.6740    8.2890 H   0  0  0  0  0  0  0  0  0  0  0  0
   -1.0550  -47.3730    7.6540 H   0  0  0  0  0  0  0  0  0  0  0  0
   -2.8640  -46.5760    8.8600 H   0  0  0  0  0  0  0  0  0  0  0  0
   -3.7700  -44.8460    6.0030 C   0  0  0  0  0  0  0  0  0  0  0  0
   -5.2150  -46.0860    9.4410 H   0  0  0  0  0  0  0  0  0  0  0  0
   -3.3690  -44.5260    5.0470 H   0  0  0  0  0  0  0  0  0  0  0  0
    1.0910  -50.8160    6.7320 N   0  0  0  0  0  0  0  0  0  0  0  0
   -7.3880  -43.8490    6.4660 C   0  0  0  0  0  0  0  0  0  0  0  0
   -6.1370  -43.8890    5.5490 C   0  0  0  0  0  0  0  0  0  0  0  0
   -5.0780  -44.5840    6.3620 C   0  0  0  0  0  0  0  0  0  0  0  0
   -5.5990  -45.0310    7.6050 C   0  0  0  0  0  0  0  0  0  0  0  0
   -7.0470  -44.6600    7.7470 C   0  0  0  0  0  0  0  0  0  0  0  0
   -7.2040  -44.0490    8.6570 H   0  0  0  0  0  0  0  0  0  0  0  0
   -7.6870  -45.5690    7.8090 H   0  0  0  0  0  0  0  0  0  0  0  0
   -7.6420  -42.8040    6.7350 H   0  0  0  0  0  0  0  0  0  0  0  0
   -8.2600  -44.2980    5.9490 H   0  0  0  0  0  0  0  0  0  0  0  0
   -6.3560  -44.4770    4.6280 H   0  0  0  0  0  0  0  0  0  0  0  0
   -5.8190  -42.8660    5.2600 H   0  0  0  0  0  0  0  0  0  0  0  0
    1.6010  -51.6190    7.0810 H   0  0  0  0  0  0  0  0  0  0  0  0
  1  2  2  0  0  0  0
  2  3  1  0  0  0  0
  2  4  1  0  0  0  0
  4 11  2  0  0  0  0
  4 33  1  0  0  0  0
  5  6  2  0  0  0  0
  5 10  1  0  0  0  0
  5 33  1  0  0  0  0
  6  7  1  0  0  0  0
  6 19  1  0  0  0  0
  7  8  2  0  0  0  0
  7 20  1  0  0  0  0
  8  9  1  0  0  0  0
  8 21  1  0  0  0  0
  9 10  2  0  0  0  0
  9 22  1  0  0  0  0
 10 11  1  0  0  0  0
 11 12  1  0  0  0  0
 12 23  1  0  0  0  0
 12 24  1  0  0  0  0
 12 13  1  0  0  0  0
 13 14  1  0  0  0  0
 13 25  1  0  0  0  0
 13 26  1  0  0  0  0
 14 15  1  0  0  0  0
 14 27  1  0  0  0  0
 14 28  1  0  0  0  0
 15 16  1  0  0  0  0
 16 18  2  0  0  0  0
 16 30  1  0  0  0  0
 17 18  1  0  0  0  0
 17 31  1  0  0  0  0
 17 37  2  0  0  0  0
 18 29  1  0  0  0  0
 30 32  1  0  0  0  0
 30 36  2  0  0  0  0
 33 45  1  0  0  0  0
 34 35  1  0  0  0  0
 34 38  1  0  0  0  0
 34 41  1  0  0  0  0
 34 42  1  0  0  0  0
 35 36  1  0  0  0  0
 35 43  1  0  0  0  0
 35 44  1  0  0  0  0
 36 37  1  0  0  0  0
 37 38  1  0  0  0  0
 38 39  1  0  0  0  0
 38 40  1  0  0  0  0
M  CHG  1   3  -1
M  END
$$$$
