18637-1
 OpenBabel02232411163D
Structure written by MMmdl.
 53 54  0  0  0  0  0  0  0  0999 V2000
   23.8280   12.6390   30.3560 C   0  0  0  0  0  0  0  0  0  0  0  0
   23.3890   11.1910   30.4660 C   0  0  0  0  0  0  0  0  0  0  0  0
   22.1410   11.2800   31.2660 O   0  0  0  0  0  0  0  0  0  0  0  0
   21.5060   10.1360   31.5990 C   0  0  0  0  0  0  0  0  0  0  0  0
   21.9800    8.9520   31.1450 N   0  0  0  0  0  0  0  0  0  0  0  0
   21.2460    7.8130   31.4500 C   0  0  0  0  0  0  0  0  0  0  0  0
   20.0970    7.8470   32.2340 C   0  0  0  0  0  0  0  0  0  0  0  0
   19.6180    9.0920   32.7200 C   0  0  0  0  0  0  0  0  0  0  0  0
   18.4810    9.1290   33.4850 N   0  0  0  0  0  0  0  0  0  0  0  0
   20.3240   10.2910   32.3840 C   0  0  0  0  0  0  0  0  0  0  0  0
   19.9030   11.5890   32.7420 C   0  0  0  0  0  0  0  0  0  0  0  0
   19.6010   12.6810   32.9910 N   0  0  0  0  0  0  0  0  0  0  0  0
   21.7960    6.6570   30.8570 N   0  0  0  0  0  0  0  0  0  0  0  0
   21.1830    5.3830   30.7660 C   0  0  0  0  0  0  0  0  0  0  0  0
   20.1090    5.1370   31.2720 O   0  0  0  0  0  0  0  0  0  0  0  0
   21.9720    4.3950   29.9170 C   0  0  0  0  0  0  0  0  0  0  0  0
   23.2870    4.0290   30.5340 C   0  0  0  0  0  0  0  0  0  0  0  0
   24.4410    4.8190   30.3200 C   0  0  0  0  0  0  0  0  0  0  0  0
   24.2110    5.9010   29.4900 O   0  0  0  0  0  0  0  0  0  0  0  0
   25.2400    6.9220   29.3740 C   0  0  0  0  0  0  0  0  0  0  0  0
   25.6820    4.5090   30.8900 C   0  0  0  0  0  0  0  0  0  0  0  0
   25.8000    3.3700   31.6940 C   0  0  0  0  0  0  0  0  0  0  0  0
   24.6350    2.5770   31.9260 C   0  0  0  0  0  0  0  0  0  0  0  0
   23.4110    2.8930   31.3430 C   0  0  0  0  0  0  0  0  0  0  0  0
   24.8230    1.5470   32.8390 O   0  0  0  0  0  0  0  0  0  0  0  0
   24.1080    0.3110   32.5760 C   0  0  0  0  0  0  0  0  0  0  0  0
   27.0130    2.9760   32.3230 N   0  0  0  0  0  0  0  0  0  0  0  0
   28.3220    3.3550   31.9320 C   0  0  0  0  0  0  0  0  0  0  0  0
   28.5100    4.1000   30.9860 O   0  0  0  0  0  0  0  0  0  0  0  0
   29.4010    2.7590   32.7820 C   0  0  0  0  0  0  0  0  0  0  0  0
   24.0550   13.0730   31.3550 H   0  0  0  0  0  0  0  0  0  0  0  0
   23.0400   13.2590   29.8660 H   0  0  0  0  0  0  0  0  0  0  0  0
   24.7500   12.6870   29.7250 H   0  0  0  0  0  0  0  0  0  0  0  0
   23.1270   10.7500   29.4790 H   0  0  0  0  0  0  0  0  0  0  0  0
   24.1170   10.5650   31.0280 H   0  0  0  0  0  0  0  0  0  0  0  0
   19.5440    6.9340   32.4660 H   0  0  0  0  0  0  0  0  0  0  0  0
   18.0810   10.0130   33.8020 H   0  0  0  0  0  0  0  0  0  0  0  0
   17.9800    8.2570   33.7440 H   0  0  0  0  0  0  0  0  0  0  0  0
   22.7170    6.7940   30.3750 H   0  0  0  0  0  0  0  0  0  0  0  0
   21.3540    3.4720   29.7740 H   0  0  0  0  0  0  0  0  0  0  0  0
   22.1490    4.8620   28.9100 H   0  0  0  0  0  0  0  0  0  0  0  0
   24.7070    7.6980   28.7760 H   0  0  0  0  0  0  0  0  0  0  0  0
   25.5150    7.3080   30.3790 H   0  0  0  0  0  0  0  0  0  0  0  0
   26.1100    6.5100   28.8230 H   0  0  0  0  0  0  0  0  0  0  0  0
   26.5550    5.1420   30.7070 H   0  0  0  0  0  0  0  0  0  0  0  0
   22.5480    2.2470   31.5220 H   0  0  0  0  0  0  0  0  0  0  0  0
   24.6400   -0.4040   33.2460 H   0  0  0  0  0  0  0  0  0  0  0  0
   23.0460    0.4310   32.8790 H   0  0  0  0  0  0  0  0  0  0  0  0
   24.2120    0.0170   31.5100 H   0  0  0  0  0  0  0  0  0  0  0  0
   26.9220    2.2250   33.0340 H   0  0  0  0  0  0  0  0  0  0  0  0
   29.4380    1.6440   32.6740 H   0  0  0  0  0  0  0  0  0  0  0  0
   30.4060    3.1590   32.4920 H   0  0  0  0  0  0  0  0  0  0  0  0
   29.2490    2.9880   33.8690 H   0  0  0  0  0  0  0  0  0  0  0  0
  1  2  1  0  0  0  0
  1 31  1  0  0  0  0
  1 32  1  0  0  0  0
  1 33  1  0  0  0  0
  2  3  1  0  0  0  0
  2 34  1  0  0  0  0
  2 35  1  0  0  0  0
  3  4  1  0  0  0  0
  4 10  2  0  0  0  0
  4  5  1  0  0  0  0
  5  6  2  0  0  0  0
  6  7  1  0  0  0  0
  6 13  1  0  0  0  0
  7  8  2  0  0  0  0
  7 36  1  0  0  0  0
  8  9  1  0  0  0  0
  8 10  1  0  0  0  0
  9 37  1  0  0  0  0
  9 38  1  0  0  0  0
 10 11  1  0  0  0  0
 11 12  3  0  0  0  0
 13 14  1  0  0  0  0
 13 39  1  0  0  0  0
 14 15  2  0  0  0  0
 14 16  1  0  0  0  0
 16 17  1  0  0  0  0
 16 40  1  0  0  0  0
 16 41  1  0  0  0  0
 17 24  2  0  0  0  0
 17 18  1  0  0  0  0
 18 19  1  0  0  0  0
 18 21  2  0  0  0  0
 19 20  1  0  0  0  0
 20 42  1  0  0  0  0
 20 43  1  0  0  0  0
 20 44  1  0  0  0  0
 21 22  1  0  0  0  0
 21 45  1  0  0  0  0
 22 23  2  0  0  0  0
 22 27  1  0  0  0  0
 23 24  1  0  0  0  0
 23 25  1  0  0  0  0
 24 46  1  0  0  0  0
 25 26  1  0  0  0  0
 26 47  1  0  0  0  0
 26 48  1  0  0  0  0
 26 49  1  0  0  0  0
 27 28  1  0  0  0  0
 27 50  1  0  0  0  0
 28 29  2  0  0  0  0
 28 30  1  0  0  0  0
 30 51  1  0  0  0  0
 30 52  1  0  0  0  0
 30 53  1  0  0  0  0
M  END
$$$$
