18630-1
 OpenBabel02232411163D
Structure written by MMmdl.
 41 42  0  0  0  0  0  0  0  0999 V2000
   24.4780   11.0520   30.7820 C   0  0  0  0  0  0  0  0  0  0  0  0
   23.1340   11.2870   30.1260 C   0  0  0  0  0  0  0  0  0  0  0  0
   22.0610   11.3100   31.1430 O   0  0  0  0  0  0  0  0  0  0  0  0
   21.4870   10.1510   31.5350 C   0  0  0  0  0  0  0  0  0  0  0  0
   21.9670    8.9690   31.0830 N   0  0  0  0  0  0  0  0  0  0  0  0
   21.2740    7.8190   31.4340 C   0  0  0  0  0  0  0  0  0  0  0  0
   20.1440    7.8390   32.2450 C   0  0  0  0  0  0  0  0  0  0  0  0
   19.6520    9.0830   32.7230 C   0  0  0  0  0  0  0  0  0  0  0  0
   18.5160    9.1160   33.4910 N   0  0  0  0  0  0  0  0  0  0  0  0
   20.3380   10.2890   32.3700 C   0  0  0  0  0  0  0  0  0  0  0  0
   19.9200   11.5820   32.7490 C   0  0  0  0  0  0  0  0  0  0  0  0
   19.6280   12.6720   33.0180 N   0  0  0  0  0  0  0  0  0  0  0  0
   21.8470    6.6660   30.8460 N   0  0  0  0  0  0  0  0  0  0  0  0
   21.3130    5.3510   30.8370 C   0  0  0  0  0  0  0  0  0  0  0  0
   20.2880    5.0600   31.4160 O   0  0  0  0  0  0  0  0  0  0  0  0
   22.1210    4.3810   29.9880 C   0  0  0  0  0  0  0  0  0  0  0  0
   23.4160    3.9950   30.6510 C   0  0  0  0  0  0  0  0  0  0  0  0
   23.4740    2.8770   31.4980 C   0  0  0  0  0  0  0  0  0  0  0  0
   24.6670    2.5380   32.1360 C   0  0  0  0  0  0  0  0  0  0  0  0
   25.8310    3.2980   31.9300 C   0  0  0  0  0  0  0  0  0  0  0  0
   27.1040    2.9240   32.6150 C   0  0  0  0  0  0  0  0  0  0  0  0
   25.7760    4.3980   31.0600 C   0  0  0  0  0  0  0  0  0  0  0  0
   24.5820    4.7420   30.4240 C   0  0  0  0  0  0  0  0  0  0  0  0
   24.4980   10.0770   31.3230 H   0  0  0  0  0  0  0  0  0  0  0  0
   24.7260   11.8680   31.4930 H   0  0  0  0  0  0  0  0  0  0  0  0
   25.2700   11.0150   29.9920 H   0  0  0  0  0  0  0  0  0  0  0  0
   23.0320   12.3270   29.7290 H   0  0  0  0  0  0  0  0  0  0  0  0
   22.9010   10.5250   29.3490 H   0  0  0  0  0  0  0  0  0  0  0  0
   19.6170    6.9180   32.5030 H   0  0  0  0  0  0  0  0  0  0  0  0
   18.0200    8.2430   33.7550 H   0  0  0  0  0  0  0  0  0  0  0  0
   18.1110    9.9990   33.8020 H   0  0  0  0  0  0  0  0  0  0  0  0
   22.7270    6.8390   30.3210 H   0  0  0  0  0  0  0  0  0  0  0  0
   21.5010    3.4640   29.8080 H   0  0  0  0  0  0  0  0  0  0  0  0
   22.3300    4.8520   28.9910 H   0  0  0  0  0  0  0  0  0  0  0  0
   22.5900    2.2570   31.6600 H   0  0  0  0  0  0  0  0  0  0  0  0
   24.6970    1.6670   32.7970 H   0  0  0  0  0  0  0  0  0  0  0  0
   27.4820    1.9470   32.2190 H   0  0  0  0  0  0  0  0  0  0  0  0
   27.9020    3.6890   32.4590 H   0  0  0  0  0  0  0  0  0  0  0  0
   26.9440    2.8110   33.7160 H   0  0  0  0  0  0  0  0  0  0  0  0
   26.6740    4.9940   30.8700 H   0  0  0  0  0  0  0  0  0  0  0  0
   24.5790    5.5940   29.7400 H   0  0  0  0  0  0  0  0  0  0  0  0
  1  2  1  0  0  0  0
  1 24  1  0  0  0  0
  1 25  1  0  0  0  0
  1 26  1  0  0  0  0
  2  3  1  0  0  0  0
  2 27  1  0  0  0  0
  2 28  1  0  0  0  0
  3  4  1  0  0  0  0
  4 10  2  0  0  0  0
  4  5  1  0  0  0  0
  5  6  2  0  0  0  0
  6  7  1  0  0  0  0
  6 13  1  0  0  0  0
  7  8  2  0  0  0  0
  7 29  1  0  0  0  0
  8  9  1  0  0  0  0
  8 10  1  0  0  0  0
  9 30  1  0  0  0  0
  9 31  1  0  0  0  0
 10 11  1  0  0  0  0
 11 12  3  0  0  0  0
 13 14  1  0  0  0  0
 13 32  1  0  0  0  0
 14 15  2  0  0  0  0
 14 16  1  0  0  0  0
 16 17  1  0  0  0  0
 16 33  1  0  0  0  0
 16 34  1  0  0  0  0
 17 23  2  0  0  0  0
 17 18  1  0  0  0  0
 18 19  2  0  0  0  0
 18 35  1  0  0  0  0
 19 20  1  0  0  0  0
 19 36  1  0  0  0  0
 20 21  1  0  0  0  0
 20 22  2  0  0  0  0
 21 37  1  0  0  0  0
 21 38  1  0  0  0  0
 21 39  1  0  0  0  0
 22 23  1  0  0  0  0
 22 40  1  0  0  0  0
 23 41  1  0  0  0  0
M  END
$$$$
