p38a_2m
 OpenBabel02232411163D
Structure written by MMmdl.
 50 54  0  0  0  0  0  0  0  0999 V2000
   36.3800   36.0720   15.7830 C   0  0  0  0  0  0  0  0  0  0  0  0
   34.5150   35.0290   21.2490 C   0  0  0  0  0  0  0  0  0  0  0  0
   35.7500   35.5890   16.9260 C   0  0  0  0  0  0  0  0  0  0  0  0
   33.9280   39.1250   23.7630 C   0  0  0  0  0  0  0  0  0  0  0  0
   34.7420   37.8920   21.4360 C   0  0  0  0  0  0  0  0  0  0  0  0
   35.2700   37.2220   20.2780 C   0  0  0  0  0  0  0  0  0  0  0  0
   37.6730   36.5840   15.9520 C   0  0  0  0  0  0  0  0  0  0  0  0
   38.3430   36.5950   17.1780 C   0  0  0  0  0  0  0  0  0  0  0  0
   37.6750   36.1380   18.3190 C   0  0  0  0  0  0  0  0  0  0  0  0
   34.2090   37.1370   22.5210 C   0  0  0  0  0  0  0  0  0  0  0  0
   34.7550   39.3060   21.5790 C   0  0  0  0  0  0  0  0  0  0  0  0
   35.1940   35.8740   20.2260 C   0  0  0  0  0  0  0  0  0  0  0  0
   36.3770   35.6360   18.1870 C   0  0  0  0  0  0  0  0  0  0  0  0
   34.5380   35.0560   16.8520 F   0  0  0  0  0  0  0  0  0  0  0  0
   35.6840   35.0220   19.2390 O   0  0  0  0  0  0  0  0  0  0  0  0
   34.3670   39.9360   22.6980 N   0  0  0  0  0  0  0  0  0  0  0  0
   34.3310   33.8390   21.1230 O   0  0  0  0  0  0  0  0  0  0  0  0
   34.0720   35.7330   22.4270 N   0  0  0  0  0  0  0  0  0  0  0  0
   33.8200   37.7500   23.6850 N   0  0  0  0  0  0  0  0  0  0  0  0
   33.5210   39.7520   24.9220 N   0  0  0  0  0  0  0  0  0  0  0  0
   35.8860   36.0730   14.8090 H   0  0  0  0  0  0  0  0  0  0  0  0
   35.7290   37.8280   19.4940 H   0  0  0  0  0  0  0  0  0  0  0  0
   39.3620   36.9820   17.2590 H   0  0  0  0  0  0  0  0  0  0  0  0
   38.1620   36.2000   19.2950 H   0  0  0  0  0  0  0  0  0  0  0  0
   35.0990   39.9350   20.7420 H   0  0  0  0  0  0  0  0  0  0  0  0
   33.7020   40.7680   25.0400 H   0  0  0  0  0  0  0  0  0  0  0  0
   38.2750   37.1190   14.8920 F   0  0  0  0  0  0  0  0  0  0  0  0
   32.1200   39.0820   28.4130 C   0  0  0  0  0  0  0  0  0  0  0  0
   32.2890   39.7790   27.0570 C   0  0  0  0  0  0  0  0  0  0  0  0
   33.2930   38.9910   26.1890 C   0  0  0  0  0  0  0  0  0  0  0  0
   34.6220   38.7910   26.9520 C   0  0  0  0  0  0  0  0  0  0  0  0
   34.3440   38.1450   28.3140 C   0  0  0  0  0  0  0  0  0  0  0  0
   33.3890   38.9110   29.0840 O   0  0  0  0  0  0  0  0  0  0  0  0
   31.6350   38.0850   28.2910 H   0  0  0  0  0  0  0  0  0  0  0  0
   31.5600   39.7230   29.1310 H   0  0  0  0  0  0  0  0  0  0  0  0
   32.6580   40.8190   27.2180 H   0  0  0  0  0  0  0  0  0  0  0  0
   31.3060   39.8300   26.5320 H   0  0  0  0  0  0  0  0  0  0  0  0
   32.8490   37.9870   25.9340 H   0  0  0  0  0  0  0  0  0  0  0  0
   35.3010   38.1270   26.3660 H   0  0  0  0  0  0  0  0  0  0  0  0
   35.1290   39.7750   27.0930 H   0  0  0  0  0  0  0  0  0  0  0  0
   33.9570   37.1060   28.1900 H   0  0  0  0  0  0  0  0  0  0  0  0
   35.2480   38.1690   28.9650 H   0  0  0  0  0  0  0  0  0  0  0  0
   33.4300   35.0210   23.5530 C   0  0  0  0  0  0  0  0  0  0  0  0
   33.7320   33.5630   23.8660 C   0  0  0  0  0  0  0  0  0  0  0  0
   32.3740   33.9510   23.3050 C   0  0  0  0  0  0  0  0  0  0  0  0
   33.2720   35.6870   24.4310 H   0  0  0  0  0  0  0  0  0  0  0  0
   34.4270   32.9840   23.2500 H   0  0  0  0  0  0  0  0  0  0  0  0
   33.7980   33.2850   24.9310 H   0  0  0  0  0  0  0  0  0  0  0  0
   32.1020   33.6500   22.2870 H   0  0  0  0  0  0  0  0  0  0  0  0
   31.5030   33.9420   23.9810 H   0  0  0  0  0  0  0  0  0  0  0  0
  1  3  2  0  0  0  0
  1  7  1  0  0  0  0
  1 21  1  0  0  0  0
  2 12  1  0  0  0  0
  2 17  2  0  0  0  0
  2 18  1  0  0  0  0
  3 13  1  0  0  0  0
  3 14  1  0  0  0  0
  4 16  2  0  0  0  0
  4 19  1  0  0  0  0
  4 20  1  0  0  0  0
  5  6  1  0  0  0  0
  5 10  1  0  0  0  0
  5 11  2  0  0  0  0
  6 12  2  0  0  0  0
  6 22  1  0  0  0  0
  7  8  2  0  0  0  0
  7 27  1  0  0  0  0
  8  9  1  0  0  0  0
  8 23  1  0  0  0  0
  9 13  2  0  0  0  0
  9 24  1  0  0  0  0
 10 18  1  0  0  0  0
 10 19  2  0  0  0  0
 11 16  1  0  0  0  0
 11 25  1  0  0  0  0
 12 15  1  0  0  0  0
 13 15  1  0  0  0  0
 18 43  1  0  0  0  0
 20 26  1  0  0  0  0
 20 30  1  0  0  0  0
 28 29  1  0  0  0  0
 28 33  1  0  0  0  0
 28 34  1  0  0  0  0
 28 35  1  0  0  0  0
 29 30  1  0  0  0  0
 29 36  1  0  0  0  0
 29 37  1  0  0  0  0
 30 31  1  0  0  0  0
 30 38  1  0  0  0  0
 31 32  1  0  0  0  0
 31 39  1  0  0  0  0
 31 40  1  0  0  0  0
 32 33  1  0  0  0  0
 32 41  1  0  0  0  0
 32 42  1  0  0  0  0
 43 44  1  0  0  0  0
 43 45  1  0  0  0  0
 43 46  1  0  0  0  0
 44 45  1  0  0  0  0
 44 47  1  0  0  0  0
 44 48  1  0  0  0  0
 45 49  1  0  0  0  0
 45 50  1  0  0  0  0
M  END
$$$$
