p38a_2u
 OpenBabel02232411163D
Structure written by MMmdl.
 64 68  0  0  0  0  0  0  0  0999 V2000
   38.2500   36.5180   17.1800 C   0  0  0  0  0  0  0  0  0  0  0  0
   34.5760   35.1200   21.2870 C   0  0  0  0  0  0  0  0  0  0  0  0
   37.4580   36.0770   18.2360 C   0  0  0  0  0  0  0  0  0  0  0  0
   33.9860   39.2180   23.7890 C   0  0  0  0  0  0  0  0  0  0  0  0
   34.6260   38.0000   21.3990 C   0  0  0  0  0  0  0  0  0  0  0  0
   34.9980   37.3380   20.1780 C   0  0  0  0  0  0  0  0  0  0  0  0
   37.6070   36.6810   15.9450 C   0  0  0  0  0  0  0  0  0  0  0  0
   36.2550   36.4000   15.7370 C   0  0  0  0  0  0  0  0  0  0  0  0
   35.4830   35.9460   16.8120 C   0  0  0  0  0  0  0  0  0  0  0  0
   34.3180   37.2320   22.5590 C   0  0  0  0  0  0  0  0  0  0  0  0
   34.5670   39.4140   21.5280 C   0  0  0  0  0  0  0  0  0  0  0  0
   35.0030   35.9860   20.1510 C   0  0  0  0  0  0  0  0  0  0  0  0
   36.0910   35.7770   18.0590 C   0  0  0  0  0  0  0  0  0  0  0  0
   37.9870   35.9350   19.4450 F   0  0  0  0  0  0  0  0  0  0  0  0
   35.3590   35.1630   19.0850 O   0  0  0  0  0  0  0  0  0  0  0  0
   34.2670   40.0370   22.6770 N   0  0  0  0  0  0  0  0  0  0  0  0
   34.4540   33.9160   21.2170 O   0  0  0  0  0  0  0  0  0  0  0  0
   34.3180   35.8220   22.5180 N   0  0  0  0  0  0  0  0  0  0  0  0
   34.0150   37.8390   23.7500 N   0  0  0  0  0  0  0  0  0  0  0  0
   33.5920   39.8310   24.9580 N   0  0  0  0  0  0  0  0  0  0  0  0
   39.3080   36.7630   17.3160 H   0  0  0  0  0  0  0  0  0  0  0  0
   35.2730   37.9530   19.3180 H   0  0  0  0  0  0  0  0  0  0  0  0
   35.7890   36.5440   14.7600 H   0  0  0  0  0  0  0  0  0  0  0  0
   34.4160   35.7430   16.6730 H   0  0  0  0  0  0  0  0  0  0  0  0
   34.7730   40.0520   20.6510 H   0  0  0  0  0  0  0  0  0  0  0  0
   33.7070   40.8570   25.0630 H   0  0  0  0  0  0  0  0  0  0  0  0
   38.3150   37.1670   14.9280 F   0  0  0  0  0  0  0  0  0  0  0  0
   32.2930   39.0800   28.4680 C   0  0  0  0  0  0  0  0  0  0  0  0
   32.3580   39.7450   27.0870 C   0  0  0  0  0  0  0  0  0  0  0  0
   33.4640   39.0760   26.2430 C   0  0  0  0  0  0  0  0  0  0  0  0
   34.8080   39.0800   27.0060 C   0  0  0  0  0  0  0  0  0  0  0  0
   34.6200   38.4710   28.4010 C   0  0  0  0  0  0  0  0  0  0  0  0
   33.5720   39.1410   29.1400 O   0  0  0  0  0  0  0  0  0  0  0  0
   31.9790   38.0130   28.3810 H   0  0  0  0  0  0  0  0  0  0  0  0
   31.6310   39.6460   29.1610 H   0  0  0  0  0  0  0  0  0  0  0  0
   32.5780   40.8320   27.2060 H   0  0  0  0  0  0  0  0  0  0  0  0
   31.3760   39.6330   26.5680 H   0  0  0  0  0  0  0  0  0  0  0  0
   33.1640   38.0140   26.0200 H   0  0  0  0  0  0  0  0  0  0  0  0
   35.5600   38.4760   26.4440 H   0  0  0  0  0  0  0  0  0  0  0  0
   35.1870   40.1260   27.0960 H   0  0  0  0  0  0  0  0  0  0  0  0
   34.3710   37.3870   28.3290 H   0  0  0  0  0  0  0  0  0  0  0  0
   35.5140   38.6440   29.0420 H   0  0  0  0  0  0  0  0  0  0  0  0
   34.6970   33.2130   25.3570 C   0  0  0  0  0  0  0  0  0  0  0  0
   35.0430   33.9900   24.0710 C   0  0  0  0  0  0  0  0  0  0  0  0
   33.9690   35.0560   23.7790 C   0  0  0  0  0  0  0  0  0  0  0  0
   32.5490   34.4620   23.6720 C   0  0  0  0  0  0  0  0  0  0  0  0
   32.4860   33.0130   24.1990 C   0  0  0  0  0  0  0  0  0  0  0  0
   34.9770   33.8490   26.2380 H   0  0  0  0  0  0  0  0  0  0  0  0
   35.3070   32.2710   25.3690 H   0  0  0  0  0  0  0  0  0  0  0  0
   35.1190   33.2780   23.2140 H   0  0  0  0  0  0  0  0  0  0  0  0
   36.0250   34.4960   24.2180 H   0  0  0  0  0  0  0  0  0  0  0  0
   33.9820   35.7840   24.6430 H   0  0  0  0  0  0  0  0  0  0  0  0
   31.8490   35.1150   24.2500 H   0  0  0  0  0  0  0  0  0  0  0  0
   32.1890   34.4590   22.6150 H   0  0  0  0  0  0  0  0  0  0  0  0
   31.4120   32.7350   24.3710 H   0  0  0  0  0  0  0  0  0  0  0  0
   32.9140   32.3260   23.4210 H   0  0  0  0  0  0  0  0  0  0  0  0
   33.2650   32.7920   25.4440 N   0  0  0  0  0  0  0  0  0  0  0  0
   32.4560   32.9630   26.9570 S   0  0  0  0  0  0  0  0  0  0  0  0
   33.1100   32.0320   27.8960 O   0  0  0  0  0  0  0  0  0  0  0  0
   31.0410   32.6060   26.7350 O   0  0  0  0  0  0  0  0  0  0  0  0
   32.6350   34.6040   27.4850 C   0  0  0  0  0  0  0  0  0  0  0  0
   33.6620   34.8360   27.8760 H   0  0  0  0  0  0  0  0  0  0  0  0
   32.4160   35.3530   26.6810 H   0  0  0  0  0  0  0  0  0  0  0  0
   31.9310   34.8530   28.3260 H   0  0  0  0  0  0  0  0  0  0  0  0
  1  3  2  0  0  0  0
  1  7  1  0  0  0  0
  1 21  1  0  0  0  0
  2 12  1  0  0  0  0
  2 17  2  0  0  0  0
  2 18  1  0  0  0  0
  3 13  1  0  0  0  0
  3 14  1  0  0  0  0
  4 16  2  0  0  0  0
  4 19  1  0  0  0  0
  4 20  1  0  0  0  0
  5  6  1  0  0  0  0
  5 10  1  0  0  0  0
  5 11  2  0  0  0  0
  6 12  2  0  0  0  0
  6 22  1  0  0  0  0
  7  8  2  0  0  0  0
  7 27  1  0  0  0  0
  8  9  1  0  0  0  0
  8 23  1  0  0  0  0
  9 13  2  0  0  0  0
  9 24  1  0  0  0  0
 10 18  1  0  0  0  0
 10 19  2  0  0  0  0
 11 16  1  0  0  0  0
 11 25  1  0  0  0  0
 12 15  1  0  0  0  0
 13 15  1  0  0  0  0
 18 45  1  0  0  0  0
 20 26  1  0  0  0  0
 20 30  1  0  0  0  0
 28 29  1  0  0  0  0
 28 33  1  0  0  0  0
 28 34  1  0  0  0  0
 28 35  1  0  0  0  0
 29 30  1  0  0  0  0
 29 36  1  0  0  0  0
 29 37  1  0  0  0  0
 30 31  1  0  0  0  0
 30 38  1  0  0  0  0
 31 32  1  0  0  0  0
 31 39  1  0  0  0  0
 31 40  1  0  0  0  0
 32 33  1  0  0  0  0
 32 41  1  0  0  0  0
 32 42  1  0  0  0  0
 43 44  1  0  0  0  0
 43 48  1  0  0  0  0
 43 49  1  0  0  0  0
 43 57  1  0  0  0  0
 44 45  1  0  0  0  0
 44 50  1  0  0  0  0
 44 51  1  0  0  0  0
 45 46  1  0  0  0  0
 45 52  1  0  0  0  0
 46 47  1  0  0  0  0
 46 53  1  0  0  0  0
 46 54  1  0  0  0  0
 47 55  1  0  0  0  0
 47 56  1  0  0  0  0
 47 57  1  0  0  0  0
 57 58  1  0  0  0  0
 58 59  2  0  0  0  0
 58 60  2  0  0  0  0
 58 61  1  0  0  0  0
 61 62  1  0  0  0  0
 61 63  1  0  0  0  0
 61 64  1  0  0  0  0
M  END
$$$$
