18639-1
 OpenBabel02232411163D
Structure written by MMmdl.
 48 49  0  0  0  0  0  0  0  0999 V2000
   23.8630   12.6440   30.3320 C   0  0  0  0  0  0  0  0  0  0  0  0
   23.4090   11.2020   30.4500 C   0  0  0  0  0  0  0  0  0  0  0  0
   22.1570   11.3060   31.2430 O   0  0  0  0  0  0  0  0  0  0  0  0
   21.5240   10.1660   31.5920 C   0  0  0  0  0  0  0  0  0  0  0  0
   22.0130    8.9770   31.1640 N   0  0  0  0  0  0  0  0  0  0  0  0
   21.2860    7.8390   31.4820 C   0  0  0  0  0  0  0  0  0  0  0  0
   20.1250    7.8760   32.2450 C   0  0  0  0  0  0  0  0  0  0  0  0
   19.6300    9.1260   32.7060 C   0  0  0  0  0  0  0  0  0  0  0  0
   18.4830    9.1640   33.4570 N   0  0  0  0  0  0  0  0  0  0  0  0
   20.3350   10.3240   32.3650 C   0  0  0  0  0  0  0  0  0  0  0  0
   19.9060   11.6240   32.7070 C   0  0  0  0  0  0  0  0  0  0  0  0
   19.6010   12.7180   32.9440 N   0  0  0  0  0  0  0  0  0  0  0  0
   21.8650    6.6720   30.9290 N   0  0  0  0  0  0  0  0  0  0  0  0
   21.2690    5.3960   30.8560 C   0  0  0  0  0  0  0  0  0  0  0  0
   20.1810    5.1470   31.3330 O   0  0  0  0  0  0  0  0  0  0  0  0
   22.0830    4.3880   30.0530 C   0  0  0  0  0  0  0  0  0  0  0  0
   23.4420    4.0930   30.6160 C   0  0  0  0  0  0  0  0  0  0  0  0
   24.5530    4.9370   30.3000 C   0  0  0  0  0  0  0  0  0  0  0  0
   24.2120    5.9890   29.4600 O   0  0  0  0  0  0  0  0  0  0  0  0
   25.1900    7.0500   29.2800 C   0  0  0  0  0  0  0  0  0  0  0  0
   25.8280    4.6740   30.7760 C   0  0  0  0  0  0  0  0  0  0  0  0
   26.0390    3.5520   31.6060 C   0  0  0  0  0  0  0  0  0  0  0  0
   27.3870    3.2730   32.1080 N   0  3  0  0  0  0  0  0  0  0  0  0
   27.5090    2.4710   33.0210 O   0  5  0  0  0  0  0  0  0  0  0  0
   28.3360    3.8490   31.5890 O   0  0  0  0  0  0  0  0  0  0  0  0
   24.9530    2.7040   31.9230 C   0  0  0  0  0  0  0  0  0  0  0  0
   23.6630    2.9810   31.4130 C   0  0  0  0  0  0  0  0  0  0  0  0
   25.2830    1.6570   32.7310 O   0  0  0  0  0  0  0  0  0  0  0  0
   24.2730    0.6300   32.9560 C   0  0  0  0  0  0  0  0  0  0  0  0
   24.7930   12.6760   29.7110 H   0  0  0  0  0  0  0  0  0  0  0  0
   23.0870   13.2670   29.8270 H   0  0  0  0  0  0  0  0  0  0  0  0
   24.0840   13.0840   31.3300 H   0  0  0  0  0  0  0  0  0  0  0  0
   23.1470   10.7550   29.4650 H   0  0  0  0  0  0  0  0  0  0  0  0
   24.1290   10.5710   31.0170 H   0  0  0  0  0  0  0  0  0  0  0  0
   19.5750    6.9620   32.4790 H   0  0  0  0  0  0  0  0  0  0  0  0
   17.9780    8.2910   33.7040 H   0  0  0  0  0  0  0  0  0  0  0  0
   18.0730   10.0480   33.7580 H   0  0  0  0  0  0  0  0  0  0  0  0
   22.7870    6.8130   30.4450 H   0  0  0  0  0  0  0  0  0  0  0  0
   21.4930    3.4340   29.9850 H   0  0  0  0  0  0  0  0  0  0  0  0
   22.2050    4.8030   29.0120 H   0  0  0  0  0  0  0  0  0  0  0  0
   25.5240    7.4450   30.2640 H   0  0  0  0  0  0  0  0  0  0  0  0
   26.0330    6.6700   28.6650 H   0  0  0  0  0  0  0  0  0  0  0  0
   24.5880    7.8080   28.7270 H   0  0  0  0  0  0  0  0  0  0  0  0
   26.6790    5.3120   30.5110 H   0  0  0  0  0  0  0  0  0  0  0  0
   22.8350    2.3060   31.6460 H   0  0  0  0  0  0  0  0  0  0  0  0
   24.8460   -0.1130   33.5620 H   0  0  0  0  0  0  0  0  0  0  0  0
   23.4240    1.0480   33.5370 H   0  0  0  0  0  0  0  0  0  0  0  0
   23.9520    0.1920   31.9860 H   0  0  0  0  0  0  0  0  0  0  0  0
  1  2  1  0  0  0  0
  1 30  1  0  0  0  0
  1 31  1  0  0  0  0
  1 32  1  0  0  0  0
  2  3  1  0  0  0  0
  2 33  1  0  0  0  0
  2 34  1  0  0  0  0
  3  4  1  0  0  0  0
  4 10  2  0  0  0  0
  4  5  1  0  0  0  0
  5  6  2  0  0  0  0
  6  7  1  0  0  0  0
  6 13  1  0  0  0  0
  7  8  2  0  0  0  0
  7 35  1  0  0  0  0
  8  9  1  0  0  0  0
  8 10  1  0  0  0  0
  9 36  1  0  0  0  0
  9 37  1  0  0  0  0
 10 11  1  0  0  0  0
 11 12  3  0  0  0  0
 13 14  1  0  0  0  0
 13 38  1  0  0  0  0
 14 15  2  0  0  0  0
 14 16  1  0  0  0  0
 16 17  1  0  0  0  0
 16 39  1  0  0  0  0
 16 40  1  0  0  0  0
 17 27  2  0  0  0  0
 17 18  1  0  0  0  0
 18 19  1  0  0  0  0
 18 21  2  0  0  0  0
 19 20  1  0  0  0  0
 20 41  1  0  0  0  0
 20 42  1  0  0  0  0
 20 43  1  0  0  0  0
 21 22  1  0  0  0  0
 21 44  1  0  0  0  0
 22 23  1  0  0  0  0
 22 26  2  0  0  0  0
 23 24  1  0  0  0  0
 23 25  2  0  0  0  0
 26 27  1  0  0  0  0
 26 28  1  0  0  0  0
 27 45  1  0  0  0  0
 28 29  1  0  0  0  0
 29 46  1  0  0  0  0
 29 47  1  0  0  0  0
 29 48  1  0  0  0  0
M  CHG  2  23   1  24  -1
M  END
$$$$
