p38a_3flw
 OpenBabel02232411163D
Structure written by MMmdl.
 49 51  0  0  0  0  0  0  0  0999 V2000
   36.3170   35.9150   16.0300 C   0  0  0  0  0  0  0  0  0  0  0  0
   37.6140   36.4040   16.2330 C   0  0  0  0  0  0  0  0  0  0  0  0
   31.3430   38.4210   26.1500 C   0  0  0  0  0  0  0  0  0  0  0  0
   30.9380   37.8670   27.5210 C   0  0  0  0  0  0  0  0  0  0  0  0
   33.7720   38.8380   26.9000 C   0  0  0  0  0  0  0  0  0  0  0  0
   33.1420   35.0840   23.7490 C   0  0  0  0  0  0  0  0  0  0  0  0
   34.4050   34.9940   17.0600 F   0  0  0  0  0  0  0  0  0  0  0  0
   35.6270   35.4990   17.1640 C   0  0  0  0  0  0  0  0  0  0  0  0
   38.2750   36.8800   15.1800 F   0  0  0  0  0  0  0  0  0  0  0  0
   38.2330   36.4490   17.4860 C   0  0  0  0  0  0  0  0  0  0  0  0
   37.5080   36.0520   18.6150 C   0  0  0  0  0  0  0  0  0  0  0  0
   36.2040   35.5770   18.4490 C   0  0  0  0  0  0  0  0  0  0  0  0
   35.4560   35.0080   19.4880 O   0  0  0  0  0  0  0  0  0  0  0  0
   34.9740   35.8820   20.4590 C   0  0  0  0  0  0  0  0  0  0  0  0
   35.0530   37.2320   20.4890 C   0  0  0  0  0  0  0  0  0  0  0  0
   34.4800   37.9330   21.6080 C   0  0  0  0  0  0  0  0  0  0  0  0
   34.5050   39.3490   21.7260 C   0  0  0  0  0  0  0  0  0  0  0  0
   34.0060   40.0000   22.7870 N   0  0  0  0  0  0  0  0  0  0  0  0
   34.2920   35.0620   21.5000 C   0  0  0  0  0  0  0  0  0  0  0  0
   34.1420   33.8610   21.4540 O   0  0  0  0  0  0  0  0  0  0  0  0
   33.7890   35.8110   22.6200 N   0  0  0  0  0  0  0  0  0  0  0  0
   33.8690   37.2120   22.6750 C   0  0  0  0  0  0  0  0  0  0  0  0
   33.3470   37.8500   23.7770 N   0  0  0  0  0  0  0  0  0  0  0  0
   33.4150   39.2230   23.8070 C   0  0  0  0  0  0  0  0  0  0  0  0
   32.8180   39.9410   24.8310 N   0  0  0  0  0  0  0  0  0  0  0  0
   32.5200   39.4110   26.2060 C   0  0  0  0  0  0  0  0  0  0  0  0
   34.9900   39.7710   26.8940 C   0  0  0  0  0  0  0  0  0  0  0  0
   34.6760   41.0840   27.3970 O   0  0  0  0  0  0  0  0  0  0  0  0
   30.6590   38.9150   28.4650 O   0  0  0  0  0  0  0  0  0  0  0  0
   35.8670   35.8870   15.0330 H   0  0  0  0  0  0  0  0  0  0  0  0
   31.6110   37.5430   25.5050 H   0  0  0  0  0  0  0  0  0  0  0  0
   30.4720   38.9410   25.6830 H   0  0  0  0  0  0  0  0  0  0  0  0
   30.0430   37.2160   27.4170 H   0  0  0  0  0  0  0  0  0  0  0  0
   31.7740   37.3040   28.0000 H   0  0  0  0  0  0  0  0  0  0  0  0
   33.5000   38.6240   27.9650 H   0  0  0  0  0  0  0  0  0  0  0  0
   34.0620   37.8670   26.4250 H   0  0  0  0  0  0  0  0  0  0  0  0
   33.6330   35.3720   24.7200 H   0  0  0  0  0  0  0  0  0  0  0  0
   32.0540   35.3580   23.8090 H   0  0  0  0  0  0  0  0  0  0  0  0
   33.2390   33.9770   23.6080 H   0  0  0  0  0  0  0  0  0  0  0  0
   39.2590   36.8160   17.5860 H   0  0  0  0  0  0  0  0  0  0  0  0
   37.9550   36.1330   19.6070 H   0  0  0  0  0  0  0  0  0  0  0  0
   35.5370   37.8210   19.7060 H   0  0  0  0  0  0  0  0  0  0  0  0
   34.9530   39.9580   20.9240 H   0  0  0  0  0  0  0  0  0  0  0  0
   33.0400   40.9590   24.8560 H   0  0  0  0  0  0  0  0  0  0  0  0
   32.1810   40.3250   26.7810 H   0  0  0  0  0  0  0  0  0  0  0  0
   35.7620   39.4030   27.6110 H   0  0  0  0  0  0  0  0  0  0  0  0
   35.4050   39.8820   25.8690 H   0  0  0  0  0  0  0  0  0  0  0  0
   34.0940   41.5340   26.7100 H   0  0  0  0  0  0  0  0  0  0  0  0
   29.6960   39.1320   28.4450 H   0  0  0  0  0  0  0  0  0  0  0  0
  1  2  2  0  0  0  0
  1  8  1  0  0  0  0
  1 30  1  0  0  0  0
  2  9  1  0  0  0  0
  2 10  1  0  0  0  0
  3  4  1  0  0  0  0
  3 26  1  0  0  0  0
  3 31  1  0  0  0  0
  3 32  1  0  0  0  0
  4 29  1  0  0  0  0
  4 33  1  0  0  0  0
  4 34  1  0  0  0  0
  5 26  1  0  0  0  0
  5 27  1  0  0  0  0
  5 35  1  0  0  0  0
  5 36  1  0  0  0  0
  6 21  1  0  0  0  0
  6 37  1  0  0  0  0
  6 38  1  0  0  0  0
  6 39  1  0  0  0  0
  7  8  1  0  0  0  0
  8 12  2  0  0  0  0
 10 11  2  0  0  0  0
 10 40  1  0  0  0  0
 11 12  1  0  0  0  0
 11 41  1  0  0  0  0
 12 13  1  0  0  0  0
 13 14  1  0  0  0  0
 14 15  2  0  0  0  0
 14 19  1  0  0  0  0
 15 16  1  0  0  0  0
 15 42  1  0  0  0  0
 16 17  2  0  0  0  0
 16 22  1  0  0  0  0
 17 18  1  0  0  0  0
 17 43  1  0  0  0  0
 18 24  2  0  0  0  0
 19 20  2  0  0  0  0
 19 21  1  0  0  0  0
 21 22  1  0  0  0  0
 22 23  2  0  0  0  0
 23 24  1  0  0  0  0
 24 25  1  0  0  0  0
 25 26  1  0  0  0  0
 25 44  1  0  0  0  0
 26 45  1  0  0  0  0
 27 28  1  0  0  0  0
 27 46  1  0  0  0  0
 27 47  1  0  0  0  0
 28 48  1  0  0  0  0
 29 49  1  0  0  0  0
M  END
$$$$
