p38a_3fmk
 OpenBabel02232411163D
Structure written by MMmdl.
 46 49  0  0  1  0  0  0  0  0999 V2000
   35.6110   35.5210   17.0190 C   0  0  0  0  0  0  0  0  0  0  0  0
   36.3620   35.9460   15.9280 C   0  0  0  0  0  0  0  0  0  0  0  0
   33.7920   35.0120   23.9370 C   0  0  0  0  0  0  0  0  0  0  0  0
   38.2080   36.4360   17.4840 C   0  0  0  0  0  0  0  0  0  0  0  0
   34.7470   39.3280   21.7870 C   0  0  0  0  0  0  0  0  0  0  0  0
   33.8840   39.0360   26.5610 C   0  0  1  0  0  0  0  0  0  0  0  0
   33.5550   40.0490   27.7010 C   0  0  0  0  0  0  0  0  0  0  0  0
   34.2370   39.1450   24.0700 C   0  0  0  0  0  0  0  0  0  0  0  0
   34.4520   35.0490   21.4990 C   0  0  0  0  0  0  0  0  0  0  0  0
   34.9800   35.8860   20.3880 C   0  0  0  0  0  0  0  0  0  0  0  0
   35.0710   37.2350   20.4310 C   0  0  0  0  0  0  0  0  0  0  0  0
   36.1200   35.5830   18.3330 C   0  0  0  0  0  0  0  0  0  0  0  0
   37.4220   36.0340   18.5690 C   0  0  0  0  0  0  0  0  0  0  0  0
   34.7190   37.9130   21.6490 C   0  0  0  0  0  0  0  0  0  0  0  0
   34.3400   37.1630   22.8020 C   0  0  0  0  0  0  0  0  0  0  0  0
   34.0600   39.7810   25.2760 N   0  0  0  0  0  0  0  0  0  0  0  0
   37.6510   36.4200   16.2030 C   0  0  0  0  0  0  0  0  0  0  0  0
   38.3640   36.9120   15.1920 F   0  0  0  0  0  0  0  0  0  0  0  0
   34.3900   35.0310   16.8470 F   0  0  0  0  0  0  0  0  0  0  0  0
   35.2830   35.0460   19.3170 O   0  0  0  0  0  0  0  0  0  0  0  0
   34.2270   33.8600   21.4380 O   0  0  0  0  0  0  0  0  0  0  0  0
   34.1980   35.7680   22.7200 N   0  0  0  0  0  0  0  0  0  0  0  0
   34.1050   37.7720   24.0100 N   0  0  0  0  0  0  0  0  0  0  0  0
   34.5180   39.9560   22.9490 N   0  0  0  0  0  0  0  0  0  0  0  0
   35.0960   38.1670   26.8980 C   0  0  0  0  0  0  0  0  0  0  0  0
   34.7470   40.6640   28.3280 N   0  0  0  0  0  0  0  0  0  0  0  0
   35.2650   40.2340   29.5140 N   0  0  0  0  0  0  0  0  0  0  0  0
   36.3640   41.0170   29.7050 C   0  0  0  0  0  0  0  0  0  0  0  0
   36.4890   41.9110   28.6090 N   0  0  0  0  0  0  0  0  0  0  0  0
   35.5090   41.6750   27.7960 N   0  0  0  0  0  0  0  0  0  0  0  0
   35.9590   35.9380   14.9110 H   0  0  0  0  0  0  0  0  0  0  0  0
   34.5660   35.1360   24.7410 H   0  0  0  0  0  0  0  0  0  0  0  0
   32.8140   35.4050   24.3280 H   0  0  0  0  0  0  0  0  0  0  0  0
   33.6790   33.9220   23.6990 H   0  0  0  0  0  0  0  0  0  0  0  0
   39.2330   36.7870   17.6400 H   0  0  0  0  0  0  0  0  0  0  0  0
   34.9660   39.9540   20.9060 H   0  0  0  0  0  0  0  0  0  0  0  0
   32.9670   38.3760   26.4540 H   0  0  0  0  0  0  0  0  0  0  0  0
   32.8900   40.8740   27.3160 H   0  0  0  0  0  0  0  0  0  0  0  0
   32.9790   39.4850   28.4970 H   0  0  0  0  0  0  0  0  0  0  0  0
   35.4190   37.8370   19.5880 H   0  0  0  0  0  0  0  0  0  0  0  0
   37.8220   36.0960   19.5840 H   0  0  0  0  0  0  0  0  0  0  0  0
   34.1270   40.8140   25.3350 H   0  0  0  0  0  0  0  0  0  0  0  0
   35.1310   37.2810   26.2160 H   0  0  0  0  0  0  0  0  0  0  0  0
   36.0470   38.7270   26.8030 H   0  0  0  0  0  0  0  0  0  0  0  0
   34.9930   37.7740   27.9390 H   0  0  0  0  0  0  0  0  0  0  0  0
   37.0420   40.9820   30.5580 H   0  0  0  0  0  0  0  0  0  0  0  0
  1  2  2  0  0  0  0
  1 12  1  0  0  0  0
  1 19  1  0  0  0  0
  2 17  1  0  0  0  0
  2 31  1  0  0  0  0
  3 22  1  0  0  0  0
  3 32  1  0  0  0  0
  3 33  1  0  0  0  0
  3 34  1  0  0  0  0
  4 13  1  0  0  0  0
  4 17  2  0  0  0  0
  4 35  1  0  0  0  0
  5 14  2  0  0  0  0
  5 24  1  0  0  0  0
  5 36  1  0  0  0  0
  6  7  1  0  0  0  0
  6 16  1  0  0  0  0
  6 25  1  0  0  0  0
  6 37  1  6  0  0  0
  7 26  1  0  0  0  0
  7 38  1  0  0  0  0
  7 39  1  0  0  0  0
  8 16  1  0  0  0  0
  8 23  1  0  0  0  0
  8 24  2  0  0  0  0
  9 10  1  0  0  0  0
  9 21  2  0  0  0  0
  9 22  1  0  0  0  0
 10 11  2  0  0  0  0
 10 20  1  0  0  0  0
 11 14  1  0  0  0  0
 11 40  1  0  0  0  0
 12 13  2  0  0  0  0
 12 20  1  0  0  0  0
 13 41  1  0  0  0  0
 14 15  1  0  0  0  0
 15 22  1  0  0  0  0
 15 23  2  0  0  0  0
 16 42  1  0  0  0  0
 17 18  1  0  0  0  0
 25 43  1  0  0  0  0
 25 44  1  0  0  0  0
 25 45  1  0  0  0  0
 26 27  1  0  0  0  0
 26 30  1  0  0  0  0
 27 28  2  0  0  0  0
 28 29  1  0  0  0  0
 28 46  1  0  0  0  0
 29 30  2  0  0  0  0
M  END
$$$$
