p38a_2s
 OpenBabel02232411163D
Structure written by MMmdl.
 54 57  0  0  1  0  0  0  0  0999 V2000
   38.2470   36.4870   17.2350 C   0  0  0  0  0  0  0  0  0  0  0  0
   34.3600   35.0780   21.2450 C   0  0  0  0  0  0  0  0  0  0  0  0
   37.4570   36.0400   18.2900 C   0  0  0  0  0  0  0  0  0  0  0  0
   33.8630   39.1760   23.7750 C   0  0  0  0  0  0  0  0  0  0  0  0
   34.5360   37.9570   21.3950 C   0  0  0  0  0  0  0  0  0  0  0  0
   34.9820   37.2840   20.2040 C   0  0  0  0  0  0  0  0  0  0  0  0
   37.6060   36.6420   15.9980 C   0  0  0  0  0  0  0  0  0  0  0  0
   36.2560   36.3480   15.7890 C   0  0  0  0  0  0  0  0  0  0  0  0
   35.4870   35.8880   16.8630 C   0  0  0  0  0  0  0  0  0  0  0  0
   34.0700   37.2000   22.5100 C   0  0  0  0  0  0  0  0  0  0  0  0
   34.5660   39.3690   21.5460 C   0  0  0  0  0  0  0  0  0  0  0  0
   34.9340   35.9330   20.1660 C   0  0  0  0  0  0  0  0  0  0  0  0
   36.0940   35.7230   18.1110 C   0  0  0  0  0  0  0  0  0  0  0  0
   37.9830   35.9060   19.5000 F   0  0  0  0  0  0  0  0  0  0  0  0
   35.3730   35.1000   19.1390 O   0  0  0  0  0  0  0  0  0  0  0  0
   34.2470   39.9900   22.6930 N   0  0  0  0  0  0  0  0  0  0  0  0
   34.2130   33.8780   21.1820 O   0  0  0  0  0  0  0  0  0  0  0  0
   33.9080   35.8060   22.4050 N   0  0  0  0  0  0  0  0  0  0  0  0
   33.7590   37.8000   23.7030 N   0  0  0  0  0  0  0  0  0  0  0  0
   33.5150   39.8000   24.9540 N   0  0  0  0  0  0  0  0  0  0  0  0
   39.3020   36.7430   17.3690 H   0  0  0  0  0  0  0  0  0  0  0  0
   35.3570   37.8940   19.3790 H   0  0  0  0  0  0  0  0  0  0  0  0
   35.7910   36.4880   14.8100 H   0  0  0  0  0  0  0  0  0  0  0  0
   34.4220   35.6780   16.7190 H   0  0  0  0  0  0  0  0  0  0  0  0
   34.8620   40.0070   20.6970 H   0  0  0  0  0  0  0  0  0  0  0  0
   33.6760   40.8210   25.0560 H   0  0  0  0  0  0  0  0  0  0  0  0
   38.3120   37.1310   14.9810 F   0  0  0  0  0  0  0  0  0  0  0  0
   32.2290   39.0950   28.4800 C   0  0  0  0  0  0  0  0  0  0  0  0
   32.3100   39.7620   27.1020 C   0  0  0  0  0  0  0  0  0  0  0  0
   33.3700   39.0480   26.2370 C   0  0  0  0  0  0  0  0  0  0  0  0
   34.7230   38.9940   26.9830 C   0  0  0  0  0  0  0  0  0  0  0  0
   34.5270   38.3690   28.3700 C   0  0  0  0  0  0  0  0  0  0  0  0
   33.5190   39.0700   29.1340 O   0  0  0  0  0  0  0  0  0  0  0  0
   31.8450   38.0510   28.3960 H   0  0  0  0  0  0  0  0  0  0  0  0
   31.6170   39.6990   29.1870 H   0  0  0  0  0  0  0  0  0  0  0  0
   32.5810   40.8370   27.2230 H   0  0  0  0  0  0  0  0  0  0  0  0
   31.3170   39.7030   26.5960 H   0  0  0  0  0  0  0  0  0  0  0  0
   33.0190   38.0010   26.0140 H   0  0  0  0  0  0  0  0  0  0  0  0
   35.4520   38.3790   26.4040 H   0  0  0  0  0  0  0  0  0  0  0  0
   35.1360   40.0250   27.0870 H   0  0  0  0  0  0  0  0  0  0  0  0
   34.2350   37.2960   28.2860 H   0  0  0  0  0  0  0  0  0  0  0  0
   35.4360   38.4960   29.0030 H   0  0  0  0  0  0  0  0  0  0  0  0
   33.3460   35.0460   23.5600 C   0  0  0  0  0  0  0  0  0  0  0  0
   32.4900   35.6350   24.0040 H   0  0  0  0  0  0  0  0  0  0  0  0
   32.9500   34.0630   23.1870 H   0  0  0  0  0  0  0  0  0  0  0  0
   34.3960   34.7970   24.6700 C   0  0  2  0  0  0  0  0  0  0  0  0
   35.5220   34.0990   24.1310 O   0  0  0  0  0  0  0  0  0  0  0  0
   35.3650   33.1180   24.1680 H   0  0  0  0  0  0  0  0  0  0  0  0
   33.7660   34.0370   25.8620 C   0  0  0  0  0  0  0  0  0  0  0  0
   32.8950   34.5960   26.2810 H   0  0  0  0  0  0  0  0  0  0  0  0
   34.5330   33.8540   26.6510 H   0  0  0  0  0  0  0  0  0  0  0  0
   34.8490   35.7540   25.0360 H   0  0  0  0  0  0  0  0  0  0  0  0
   33.2010   32.7790   25.4610 O   0  0  0  0  0  0  0  0  0  0  0  0
   33.9650   32.1780   25.1640 H   0  0  0  0  0  0  0  0  0  0  0  0
  1  3  2  0  0  0  0
  1  7  1  0  0  0  0
  1 21  1  0  0  0  0
  2 12  1  0  0  0  0
  2 17  2  0  0  0  0
  2 18  1  0  0  0  0
  3 13  1  0  0  0  0
  3 14  1  0  0  0  0
  4 16  2  0  0  0  0
  4 19  1  0  0  0  0
  4 20  1  0  0  0  0
  5  6  1  0  0  0  0
  5 10  1  0  0  0  0
  5 11  2  0  0  0  0
  6 12  2  0  0  0  0
  6 22  1  0  0  0  0
  7  8  2  0  0  0  0
  7 27  1  0  0  0  0
  8  9  1  0  0  0  0
  8 23  1  0  0  0  0
  9 13  2  0  0  0  0
  9 24  1  0  0  0  0
 10 18  1  0  0  0  0
 10 19  2  0  0  0  0
 11 16  1  0  0  0  0
 11 25  1  0  0  0  0
 12 15  1  0  0  0  0
 13 15  1  0  0  0  0
 18 43  1  0  0  0  0
 20 26  1  0  0  0  0
 20 30  1  0  0  0  0
 28 29  1  0  0  0  0
 28 33  1  0  0  0  0
 28 34  1  0  0  0  0
 28 35  1  0  0  0  0
 29 30  1  0  0  0  0
 29 36  1  0  0  0  0
 29 37  1  0  0  0  0
 30 31  1  0  0  0  0
 30 38  1  0  0  0  0
 31 32  1  0  0  0  0
 31 39  1  0  0  0  0
 31 40  1  0  0  0  0
 32 33  1  0  0  0  0
 32 41  1  0  0  0  0
 32 42  1  0  0  0  0
 43 44  1  0  0  0  0
 43 45  1  0  0  0  0
 43 46  1  0  0  0  0
 46 47  1  0  0  0  0
 46 49  1  0  0  0  0
 46 52  1  1  0  0  0
 47 48  1  0  0  0  0
 49 50  1  0  0  0  0
 49 51  1  0  0  0  0
 49 53  1  0  0  0  0
 53 54  1  0  0  0  0
M  END
$$$$
