p38a_2n
 OpenBabel02232411163D
Structure written by MMmdl.
 53 56  0  0  0  0  0  0  0  0999 V2000
   38.3480   36.6060   17.0310 C   0  0  0  0  0  0  0  0  0  0  0  0
   34.5290   34.8740   20.9410 C   0  0  0  0  0  0  0  0  0  0  0  0
   37.5650   36.0890   18.0590 C   0  0  0  0  0  0  0  0  0  0  0  0
   33.6160   38.8550   23.5390 C   0  0  0  0  0  0  0  0  0  0  0  0
   34.5140   37.7370   21.1850 C   0  0  0  0  0  0  0  0  0  0  0  0
   35.0230   37.1370   19.9840 C   0  0  0  0  0  0  0  0  0  0  0  0
   37.7100   36.7870   15.7960 C   0  0  0  0  0  0  0  0  0  0  0  0
   36.3730   36.4610   15.5620 C   0  0  0  0  0  0  0  0  0  0  0  0
   35.6160   35.9150   16.6030 C   0  0  0  0  0  0  0  0  0  0  0  0
   34.0110   36.9260   22.2470 C   0  0  0  0  0  0  0  0  0  0  0  0
   34.5140   39.1450   21.3850 C   0  0  0  0  0  0  0  0  0  0  0  0
   35.0460   35.7880   19.8940 C   0  0  0  0  0  0  0  0  0  0  0  0
   36.2210   35.7160   17.8460 C   0  0  0  0  0  0  0  0  0  0  0  0
   38.0750   35.9470   19.2760 F   0  0  0  0  0  0  0  0  0  0  0  0
   35.5200   35.0150   18.8350 O   0  0  0  0  0  0  0  0  0  0  0  0
   34.0950   39.7130   22.5210 N   0  0  0  0  0  0  0  0  0  0  0  0
   34.5280   33.6630   20.8640 O   0  0  0  0  0  0  0  0  0  0  0  0
   34.0050   35.5230   22.1140 N   0  0  0  0  0  0  0  0  0  0  0  0
   33.5600   37.4810   23.4220 N   0  0  0  0  0  0  0  0  0  0  0  0
   33.1670   39.5050   24.6650 N   0  0  0  0  0  0  0  0  0  0  0  0
   39.3900   36.8950   17.1920 H   0  0  0  0  0  0  0  0  0  0  0  0
   35.3820   37.7940   19.1900 H   0  0  0  0  0  0  0  0  0  0  0  0
   35.9070   36.6410   14.5920 H   0  0  0  0  0  0  0  0  0  0  0  0
   34.5620   35.6660   16.4410 H   0  0  0  0  0  0  0  0  0  0  0  0
   34.8750   39.8200   20.5900 H   0  0  0  0  0  0  0  0  0  0  0  0
   33.3510   40.5290   24.7340 H   0  0  0  0  0  0  0  0  0  0  0  0
   38.4040   37.3400   14.8050 F   0  0  0  0  0  0  0  0  0  0  0  0
   33.3260   37.5440   27.9800 C   0  0  0  0  0  0  0  0  0  0  0  0
   33.8430   38.0850   26.6400 C   0  0  0  0  0  0  0  0  0  0  0  0
   32.7300   38.9050   25.9590 C   0  0  0  0  0  0  0  0  0  0  0  0
   31.4500   38.0630   25.8110 C   0  0  0  0  0  0  0  0  0  0  0  0
   31.0410   37.5150   27.1850 C   0  0  0  0  0  0  0  0  0  0  0  0
   32.1130   36.7770   27.8160 O   0  0  0  0  0  0  0  0  0  0  0  0
   33.1360   38.3750   28.6990 H   0  0  0  0  0  0  0  0  0  0  0  0
   34.0280   36.7900   28.4070 H   0  0  0  0  0  0  0  0  0  0  0  0
   34.1500   37.2330   25.9870 H   0  0  0  0  0  0  0  0  0  0  0  0
   34.7360   38.7300   26.8210 H   0  0  0  0  0  0  0  0  0  0  0  0
   32.4980   39.8050   26.6070 H   0  0  0  0  0  0  0  0  0  0  0  0
   30.6260   38.6960   25.4030 H   0  0  0  0  0  0  0  0  0  0  0  0
   31.6260   37.2140   25.1060 H   0  0  0  0  0  0  0  0  0  0  0  0
   30.7210   38.3360   27.8650 H   0  0  0  0  0  0  0  0  0  0  0  0
   30.2500   36.7360   27.0880 H   0  0  0  0  0  0  0  0  0  0  0  0
   33.4280   34.6460   23.1890 C   0  0  0  0  0  0  0  0  0  0  0  0
   34.0670   33.7220   23.2530 H   0  0  0  0  0  0  0  0  0  0  0  0
   33.4870   35.1890   24.1740 H   0  0  0  0  0  0  0  0  0  0  0  0
   31.9630   34.2630   22.9250 C   0  0  0  0  0  0  0  0  0  0  0  0
   31.6180   33.6400   23.7930 H   0  0  0  0  0  0  0  0  0  0  0  0
   31.3300   35.1820   22.9090 H   0  0  0  0  0  0  0  0  0  0  0  0
   31.7640   33.4670   21.6320 C   0  0  0  0  0  0  0  0  0  0  0  0
   31.6810   34.1320   20.7480 H   0  0  0  0  0  0  0  0  0  0  0  0
   32.5580   32.6990   21.4960 H   0  0  0  0  0  0  0  0  0  0  0  0
   30.5200   32.7360   21.7520 O   0  0  0  0  0  0  0  0  0  0  0  0
   30.1150   32.7030   20.8050 H   0  0  0  0  0  0  0  0  0  0  0  0
  1  3  2  0  0  0  0
  1  7  1  0  0  0  0
  1 21  1  0  0  0  0
  2 12  1  0  0  0  0
  2 17  2  0  0  0  0
  2 18  1  0  0  0  0
  3 13  1  0  0  0  0
  3 14  1  0  0  0  0
  4 16  2  0  0  0  0
  4 19  1  0  0  0  0
  4 20  1  0  0  0  0
  5  6  1  0  0  0  0
  5 10  1  0  0  0  0
  5 11  2  0  0  0  0
  6 12  2  0  0  0  0
  6 22  1  0  0  0  0
  7  8  2  0  0  0  0
  7 27  1  0  0  0  0
  8  9  1  0  0  0  0
  8 23  1  0  0  0  0
  9 13  2  0  0  0  0
  9 24  1  0  0  0  0
 10 18  1  0  0  0  0
 10 19  2  0  0  0  0
 11 16  1  0  0  0  0
 11 25  1  0  0  0  0
 12 15  1  0  0  0  0
 13 15  1  0  0  0  0
 18 43  1  0  0  0  0
 20 26  1  0  0  0  0
 20 30  1  0  0  0  0
 28 29  1  0  0  0  0
 28 33  1  0  0  0  0
 28 34  1  0  0  0  0
 28 35  1  0  0  0  0
 29 30  1  0  0  0  0
 29 36  1  0  0  0  0
 29 37  1  0  0  0  0
 30 31  1  0  0  0  0
 30 38  1  0  0  0  0
 31 32  1  0  0  0  0
 31 39  1  0  0  0  0
 31 40  1  0  0  0  0
 32 33  1  0  0  0  0
 32 41  1  0  0  0  0
 32 42  1  0  0  0  0
 43 44  1  0  0  0  0
 43 45  1  0  0  0  0
 43 46  1  0  0  0  0
 46 47  1  0  0  0  0
 46 48  1  0  0  0  0
 46 49  1  0  0  0  0
 49 50  1  0  0  0  0
 49 51  1  0  0  0  0
 49 52  1  0  0  0  0
 52 53  1  0  0  0  0
M  END
$$$$
