29
                    3D
 Schrodinger Suite 2022-3.
 41 43  0  0  1  0  0  0  0  0999 V2000
    3.0990  -48.0160    7.1480 O   0  0  0  0  0  0  0  0  0  0  0  0
    2.6680  -48.9010    6.3990 C   0  0  0  0  0  0  0  0  0  0  0  0
    3.3150  -49.5630    5.5660 O   0  5  0  0  0  0  0  0  0  0  0  0
    1.1800  -49.3140    6.4910 C   0  0  0  0  0  0  0  0  0  0  0  0
   -0.4980  -50.8520    6.7630 C   0  0  0  0  0  0  0  0  0  0  0  0
   -1.2720  -51.9970    7.0160 C   0  0  0  0  0  0  0  0  0  0  0  0
   -2.6350  -51.9140    6.7700 C   0  0  0  0  0  0  0  0  0  0  0  0
   -3.2220  -50.7220    6.2850 C   0  0  0  0  0  0  0  0  0  0  0  0
   -2.4630  -49.5840    6.0470 C   0  0  0  0  0  0  0  0  0  0  0  0
   -1.0800  -49.6210    6.2890 C   0  0  0  0  0  0  0  0  0  0  0  0
   -0.0030  -48.6630    6.1540 C   0  0  0  0  0  0  0  0  0  0  0  0
   -0.2120  -47.2540    5.7240 C   0  0  0  0  0  0  0  0  0  0  0  0
   -0.3520  -46.2710    6.9020 C   0  0  0  0  0  0  0  0  0  0  0  0
   -1.5710  -46.4920    7.7940 C   0  0  0  0  0  0  0  0  0  0  0  0
   -2.6640  -45.7370    7.1290 O   0  0  0  0  0  0  0  0  0  0  0  0
   -3.8630  -45.6470    7.7500 C   0  0  0  0  0  0  0  0  0  0  0  0
   -4.8070  -44.8440    7.0500 C   0  0  0  0  0  0  0  0  0  0  0  0
   -6.0730  -44.6320    7.6120 C   0  0  0  0  0  0  0  0  0  0  0  0
   -6.4110  -45.2240    8.8260 C   0  0  0  0  0  0  0  0  0  0  0  0
   -5.4910  -46.0540    9.4830 C   0  0  0  0  0  0  0  0  0  0  0  0
   -4.2180  -46.2680    8.9650 C   0  0  0  0  0  0  0  0  0  0  0  0
   -0.8260  -52.9180    7.3910 H   0  0  0  0  0  0  0  0  0  0  0  0
   -3.2740  -52.7780    6.9550 H   0  0  0  0  0  0  0  0  0  0  0  0
   -4.2950  -50.7040    6.0970 H   0  0  0  0  0  0  0  0  0  0  0  0
   -2.9420  -48.6800    5.6740 H   0  0  0  0  0  0  0  0  0  0  0  0
   -1.1440  -47.1970    5.1030 H   0  0  0  0  0  0  0  0  0  0  0  0
    0.6460  -46.9120    5.0950 H   0  0  0  0  0  0  0  0  0  0  0  0
   -0.4080  -45.2320    6.4970 H   0  0  0  0  0  0  0  0  0  0  0  0
    0.5550  -46.3560    7.5530 H   0  0  0  0  0  0  0  0  0  0  0  0
   -1.4400  -46.0170    8.7870 H   0  0  0  0  0  0  0  0  0  0  0  0
   -1.8990  -47.5520    7.8440 H   0  0  0  0  0  0  0  0  0  0  0  0
   -3.5390  -46.9280    9.5010 H   0  0  0  0  0  0  0  0  0  0  0  0
    0.8840  -50.6340    6.8880 N   0  0  0  0  0  0  0  0  0  0  0  0
    1.5360  -51.3510    7.1850 H   0  0  0  0  0  0  0  0  0  0  0  0
   -5.7930  -46.5460   10.4110 H   0  0  0  0  0  0  0  0  0  0  0  0
   -7.3980  -45.0670    9.2540 H   0  0  0  0  0  0  0  0  0  0  0  0
   -6.8110  -44.0110    7.0960 H   0  0  0  0  0  0  0  0  0  0  0  0
   -5.4250  -44.4310    4.7770 F   0  0  0  0  0  0  0  0  0  0  0  0
   -4.4590  -44.3030    5.7090 C   0  0  0  0  0  0  0  0  0  0  0  0
   -4.1700  -42.9910    5.6550 F   0  0  0  0  0  0  0  0  0  0  0  0
   -3.3930  -44.8850    5.1470 F   0  0  0  0  0  0  0  0  0  0  0  0
  1  2  2  0  0  0  0
  2  3  1  0  0  0  0
  2  4  1  0  0  0  0
  4 11  2  0  0  0  0
  4 33  1  0  0  0  0
  5  6  1  0  0  0  0
  5 10  2  0  0  0  0
  5 33  1  0  0  0  0
  6  7  2  0  0  0  0
  6 22  1  0  0  0  0
  7  8  1  0  0  0  0
  7 23  1  0  0  0  0
  8  9  2  0  0  0  0
  8 24  1  0  0  0  0
  9 10  1  0  0  0  0
  9 25  1  0  0  0  0
 10 11  1  0  0  0  0
 11 12  1  0  0  0  0
 12 26  1  0  0  0  0
 12 27  1  0  0  0  0
 12 13  1  0  0  0  0
 13 14  1  0  0  0  0
 13 28  1  0  0  0  0
 13 29  1  0  0  0  0
 14 15  1  0  0  0  0
 14 30  1  0  0  0  0
 14 31  1  0  0  0  0
 15 16  1  0  0  0  0
 16 17  1  0  0  0  0
 16 21  2  0  0  0  0
 17 18  2  0  0  0  0
 17 39  1  0  0  0  0
 18 19  1  0  0  0  0
 18 37  1  0  0  0  0
 19 20  2  0  0  0  0
 19 36  1  0  0  0  0
 20 21  1  0  0  0  0
 20 35  1  0  0  0  0
 21 32  1  0  0  0  0
 33 34  1  0  0  0  0
 38 39  1  0  0  0  0
 39 40  1  0  0  0  0
 39 41  1  0  0  0  0
M  CHG  1   3  -1
M  END
$$$$
