18638-1
 OpenBabel02232411163D
Structure written by MMmdl.
 52 53  0  0  0  0  0  0  0  0999 V2000
   23.3080   10.6160   29.0200 C   0  0  0  0  0  0  0  0  0  0  0  0
   23.6080   10.8850   30.4800 C   0  0  0  0  0  0  0  0  0  0  0  0
   22.3540   11.0150   31.2530 O   0  0  0  0  0  0  0  0  0  0  0  0
   21.6800    9.9000   31.6110 C   0  0  0  0  0  0  0  0  0  0  0  0
   22.1380    8.6890   31.2150 N   0  0  0  0  0  0  0  0  0  0  0  0
   21.3790    7.5800   31.5460 C   0  0  0  0  0  0  0  0  0  0  0  0
   20.2100    7.6650   32.2960 C   0  0  0  0  0  0  0  0  0  0  0  0
   19.7460    8.9370   32.7250 C   0  0  0  0  0  0  0  0  0  0  0  0
   18.5810    9.0210   33.4460 N   0  0  0  0  0  0  0  0  0  0  0  0
   20.4940   10.1070   32.3770 C   0  0  0  0  0  0  0  0  0  0  0  0
   20.1120   11.4210   32.7210 C   0  0  0  0  0  0  0  0  0  0  0  0
   19.8450   12.5230   32.9690 N   0  0  0  0  0  0  0  0  0  0  0  0
   21.9220    6.3850   31.0130 N   0  0  0  0  0  0  0  0  0  0  0  0
   21.2280    5.1620   30.8960 C   0  0  0  0  0  0  0  0  0  0  0  0
   20.1380    4.9770   31.3950 O   0  0  0  0  0  0  0  0  0  0  0  0
   21.9170    4.1360   30.0120 C   0  0  0  0  0  0  0  0  0  0  0  0
   23.2920    3.7150   30.4370 C   0  0  0  0  0  0  0  0  0  0  0  0
   24.4370    4.4270   29.9740 C   0  0  0  0  0  0  0  0  0  0  0  0
   24.1090    5.5610   29.2380 O   0  0  0  0  0  0  0  0  0  0  0  0
   25.1390    6.5780   29.0970 C   0  0  0  0  0  0  0  0  0  0  0  0
   25.7270    3.9570   30.1990 C   0  0  0  0  0  0  0  0  0  0  0  0
   25.9360    2.7860   30.9480 C   0  0  0  0  0  0  0  0  0  0  0  0
   27.5770    2.1800   31.0860 S   0  0  0  0  0  0  0  0  0  0  0  0
   28.5480    3.2940   30.9460 O   0  0  0  0  0  0  0  0  0  0  0  0
   27.7460    1.5020   32.3920 O   0  0  0  0  0  0  0  0  0  0  0  0
   27.7190    1.0650   29.7650 C   0  0  0  0  0  0  0  0  0  0  0  0
   24.8140    2.1310   31.4790 C   0  0  0  0  0  0  0  0  0  0  0  0
   23.4970    2.5790   31.2050 C   0  0  0  0  0  0  0  0  0  0  0  0
   25.0910    1.0640   32.2960 O   0  0  0  0  0  0  0  0  0  0  0  0
   24.0170    0.1210   32.5770 C   0  0  0  0  0  0  0  0  0  0  0  0
   22.8920    9.5920   28.8750 H   0  0  0  0  0  0  0  0  0  0  0  0
   22.5830   11.3560   28.6130 H   0  0  0  0  0  0  0  0  0  0  0  0
   24.2540   10.6950   28.4310 H   0  0  0  0  0  0  0  0  0  0  0  0
   24.0250   11.9070   30.6440 H   0  0  0  0  0  0  0  0  0  0  0  0
   24.2440   10.0910   30.9340 H   0  0  0  0  0  0  0  0  0  0  0  0
   19.6300    6.7720   32.5420 H   0  0  0  0  0  0  0  0  0  0  0  0
   18.0670    8.1660   33.7320 H   0  0  0  0  0  0  0  0  0  0  0  0
   18.2010    9.9210   33.7400 H   0  0  0  0  0  0  0  0  0  0  0  0
   22.8410    6.4790   30.5200 H   0  0  0  0  0  0  0  0  0  0  0  0
   21.2640    3.2250   29.9550 H   0  0  0  0  0  0  0  0  0  0  0  0
   21.9840    4.5900   28.9820 H   0  0  0  0  0  0  0  0  0  0  0  0
   24.5440    7.4520   28.7450 H   0  0  0  0  0  0  0  0  0  0  0  0
   25.6200    6.7870   30.0770 H   0  0  0  0  0  0  0  0  0  0  0  0
   25.8720    6.2440   28.3330 H   0  0  0  0  0  0  0  0  0  0  0  0
   26.5800    4.4960   29.7670 H   0  0  0  0  0  0  0  0  0  0  0  0
   27.6160    1.5760   28.7710 H   0  0  0  0  0  0  0  0  0  0  0  0
   28.7080    0.5370   29.7470 H   0  0  0  0  0  0  0  0  0  0  0  0
   26.9290    0.2690   29.7880 H   0  0  0  0  0  0  0  0  0  0  0  0
   22.6410    2.0180   31.5820 H   0  0  0  0  0  0  0  0  0  0  0  0
   23.6030   -0.2700   31.6230 H   0  0  0  0  0  0  0  0  0  0  0  0
   23.2440    0.5930   33.2200 H   0  0  0  0  0  0  0  0  0  0  0  0
   24.5610   -0.6810   33.1320 H   0  0  0  0  0  0  0  0  0  0  0  0
  1  2  1  0  0  0  0
  1 31  1  0  0  0  0
  1 32  1  0  0  0  0
  1 33  1  0  0  0  0
  2  3  1  0  0  0  0
  2 34  1  0  0  0  0
  2 35  1  0  0  0  0
  3  4  1  0  0  0  0
  4 10  2  0  0  0  0
  4  5  1  0  0  0  0
  5  6  2  0  0  0  0
  6  7  1  0  0  0  0
  6 13  1  0  0  0  0
  7  8  2  0  0  0  0
  7 36  1  0  0  0  0
  8  9  1  0  0  0  0
  8 10  1  0  0  0  0
  9 37  1  0  0  0  0
  9 38  1  0  0  0  0
 10 11  1  0  0  0  0
 11 12  3  0  0  0  0
 13 14  1  0  0  0  0
 13 39  1  0  0  0  0
 14 15  2  0  0  0  0
 14 16  1  0  0  0  0
 16 17  1  0  0  0  0
 16 40  1  0  0  0  0
 16 41  1  0  0  0  0
 17 28  2  0  0  0  0
 17 18  1  0  0  0  0
 18 19  1  0  0  0  0
 18 21  2  0  0  0  0
 19 20  1  0  0  0  0
 20 42  1  0  0  0  0
 20 43  1  0  0  0  0
 20 44  1  0  0  0  0
 21 22  1  0  0  0  0
 21 45  1  0  0  0  0
 22 23  1  0  0  0  0
 22 27  2  0  0  0  0
 23 24  2  0  0  0  0
 23 25  2  0  0  0  0
 23 26  1  0  0  0  0
 26 46  1  0  0  0  0
 26 47  1  0  0  0  0
 26 48  1  0  0  0  0
 27 28  1  0  0  0  0
 27 29  1  0  0  0  0
 28 49  1  0  0  0  0
 29 30  1  0  0  0  0
 30 50  1  0  0  0  0
 30 51  1  0  0  0  0
 30 52  1  0  0  0  0
M  END
$$$$
