18639-1
 OpenBabel02232411163D
Structure written by MMmdl.
 48 49  0  0  0  0  0  0  0  0999 V2000
   23.2230   10.7720   29.0660 C   0  0  0  0  0  0  0  0  0  0  0  0
   23.5010   11.0230   30.5330 C   0  0  0  0  0  0  0  0  0  0  0  0
   22.2360   11.1400   31.2900 O   0  0  0  0  0  0  0  0  0  0  0  0
   21.5720   10.0150   31.6370 C   0  0  0  0  0  0  0  0  0  0  0  0
   22.0360    8.8150   31.2180 N   0  0  0  0  0  0  0  0  0  0  0  0
   21.2860    7.6930   31.5300 C   0  0  0  0  0  0  0  0  0  0  0  0
   20.1180    7.7520   32.2830 C   0  0  0  0  0  0  0  0  0  0  0  0
   19.6530    9.0140   32.7430 C   0  0  0  0  0  0  0  0  0  0  0  0
   18.4980    9.0750   33.4800 N   0  0  0  0  0  0  0  0  0  0  0  0
   20.3880   10.1970   32.4120 C   0  0  0  0  0  0  0  0  0  0  0  0
   19.9970   11.5040   32.7720 C   0  0  0  0  0  0  0  0  0  0  0  0
   19.7270   12.6030   33.0300 N   0  0  0  0  0  0  0  0  0  0  0  0
   21.8580    6.5230   30.9800 N   0  0  0  0  0  0  0  0  0  0  0  0
   21.2440    5.2600   30.8680 C   0  0  0  0  0  0  0  0  0  0  0  0
   20.1410    5.0220   31.3130 O   0  0  0  0  0  0  0  0  0  0  0  0
   22.0640    4.2580   30.0640 C   0  0  0  0  0  0  0  0  0  0  0  0
   23.4290    3.9790   30.6210 C   0  0  0  0  0  0  0  0  0  0  0  0
   24.5310    4.8360   30.3050 C   0  0  0  0  0  0  0  0  0  0  0  0
   24.1800    5.8840   29.4640 O   0  0  0  0  0  0  0  0  0  0  0  0
   25.1390    6.9670   29.3030 C   0  0  0  0  0  0  0  0  0  0  0  0
   25.8070    4.5910   30.7860 C   0  0  0  0  0  0  0  0  0  0  0  0
   26.0300    3.4750   31.6200 C   0  0  0  0  0  0  0  0  0  0  0  0
   27.3790    3.2170   32.1320 N   0  3  0  0  0  0  0  0  0  0  0  0
   27.5020    2.4400   33.0660 O   0  5  0  0  0  0  0  0  0  0  0  0
   28.3250    3.7840   31.5990 O   0  0  0  0  0  0  0  0  0  0  0  0
   24.9540    2.6130   31.9360 C   0  0  0  0  0  0  0  0  0  0  0  0
   23.6620    2.8720   31.4210 C   0  0  0  0  0  0  0  0  0  0  0  0
   25.2950    1.5740   32.7490 O   0  0  0  0  0  0  0  0  0  0  0  0
   24.2940    0.5390   32.9820 C   0  0  0  0  0  0  0  0  0  0  0  0
   24.1830   10.8270   28.4960 H   0  0  0  0  0  0  0  0  0  0  0  0
   22.5270   11.5330   28.6490 H   0  0  0  0  0  0  0  0  0  0  0  0
   22.7830    9.7600   28.9070 H   0  0  0  0  0  0  0  0  0  0  0  0
   23.9140   12.0440   30.7160 H   0  0  0  0  0  0  0  0  0  0  0  0
   24.1330   10.2250   30.9850 H   0  0  0  0  0  0  0  0  0  0  0  0
   19.5450    6.8510   32.5070 H   0  0  0  0  0  0  0  0  0  0  0  0
   17.9890    8.2100   33.7460 H   0  0  0  0  0  0  0  0  0  0  0  0
   18.1090    9.9670   33.7870 H   0  0  0  0  0  0  0  0  0  0  0  0
   22.7830    6.6660   30.5010 H   0  0  0  0  0  0  0  0  0  0  0  0
   21.4850    3.2980   29.9990 H   0  0  0  0  0  0  0  0  0  0  0  0
   22.1770    4.6760   29.0230 H   0  0  0  0  0  0  0  0  0  0  0  0
   25.4550    7.3610   30.2920 H   0  0  0  0  0  0  0  0  0  0  0  0
   25.9950    6.6070   28.6930 H   0  0  0  0  0  0  0  0  0  0  0  0
   24.5270    7.7170   28.7490 H   0  0  0  0  0  0  0  0  0  0  0  0
   26.6510    5.2390   30.5200 H   0  0  0  0  0  0  0  0  0  0  0  0
   22.8430    2.1870   31.6530 H   0  0  0  0  0  0  0  0  0  0  0  0
   24.8750   -0.1960   33.5890 H   0  0  0  0  0  0  0  0  0  0  0  0
   23.4440    0.9530   33.5640 H   0  0  0  0  0  0  0  0  0  0  0  0
   23.9740    0.0930   32.0150 H   0  0  0  0  0  0  0  0  0  0  0  0
  1  2  1  0  0  0  0
  1 30  1  0  0  0  0
  1 31  1  0  0  0  0
  1 32  1  0  0  0  0
  2  3  1  0  0  0  0
  2 33  1  0  0  0  0
  2 34  1  0  0  0  0
  3  4  1  0  0  0  0
  4 10  2  0  0  0  0
  4  5  1  0  0  0  0
  5  6  2  0  0  0  0
  6  7  1  0  0  0  0
  6 13  1  0  0  0  0
  7  8  2  0  0  0  0
  7 35  1  0  0  0  0
  8  9  1  0  0  0  0
  8 10  1  0  0  0  0
  9 36  1  0  0  0  0
  9 37  1  0  0  0  0
 10 11  1  0  0  0  0
 11 12  3  0  0  0  0
 13 14  1  0  0  0  0
 13 38  1  0  0  0  0
 14 15  2  0  0  0  0
 14 16  1  0  0  0  0
 16 17  1  0  0  0  0
 16 39  1  0  0  0  0
 16 40  1  0  0  0  0
 17 27  2  0  0  0  0
 17 18  1  0  0  0  0
 18 19  1  0  0  0  0
 18 21  2  0  0  0  0
 19 20  1  0  0  0  0
 20 41  1  0  0  0  0
 20 42  1  0  0  0  0
 20 43  1  0  0  0  0
 21 22  1  0  0  0  0
 21 44  1  0  0  0  0
 22 23  1  0  0  0  0
 22 26  2  0  0  0  0
 23 24  1  0  0  0  0
 23 25  2  0  0  0  0
 26 27  1  0  0  0  0
 26 28  1  0  0  0  0
 27 45  1  0  0  0  0
 28 29  1  0  0  0  0
 29 46  1  0  0  0  0
 29 47  1  0  0  0  0
 29 48  1  0  0  0  0
M  CHG  2  23   1  24  -1
M  END
$$$$
