23483
 OpenBabel02232411173D
Structure written by MMmdl.
 57 60  0  0  0  0  0  0  0  0999 V2000
   42.4960   17.9680   12.6600 O   0  0  0  0  0  0  0  0  0  0  0  0
   41.3480   17.6970   13.0310 C   0  0  0  0  0  0  0  0  0  0  0  0
   40.3160   18.3570   12.7810 O   0  5  0  0  0  0  0  0  0  0  0  0
   41.1170   16.4150   13.8850 C   0  0  0  0  0  0  0  0  0  0  0  0
   42.4690   15.8580   13.9330 O   0  0  0  0  0  0  0  0  0  0  0  0
   42.6560   14.9130   14.8910 C   0  0  0  0  0  0  0  0  0  0  0  0
   42.0570   13.5950   14.8480 C   0  0  0  0  0  0  0  0  0  0  0  0
   40.8870   13.0880   13.4310 Br  0  0  0  0  0  0  0  0  0  0  0  0
   42.4390   12.7560   15.8620 C   0  0  0  0  0  0  0  0  0  0  0  0
   42.0000   11.4030   16.1460 C   0  0  0  0  0  0  0  0  0  0  0  0
   42.8460   10.4310   16.7290 C   0  0  0  0  0  0  0  0  0  0  0  0
   42.3850    9.1290   16.8990 C   0  0  0  0  0  0  0  0  0  0  0  0
   41.1170    8.7240   16.4540 C   0  0  0  0  0  0  0  0  0  0  0  0
   40.2650    9.6810   15.8910 C   0  0  0  0  0  0  0  0  0  0  0  0
   38.9180    9.4340   15.4650 N   0  0  0  0  0  0  0  0  0  0  0  0
   38.4700    8.0770   15.0440 C   0  0  0  0  0  0  0  0  0  0  0  0
   36.9350    8.1670   14.8260 C   0  0  0  0  0  0  0  0  0  0  0  0
   36.3610    6.8410   14.3000 C   0  0  0  0  0  0  0  0  0  0  0  0
   37.0510    6.4390   13.0340 N   0  0  0  0  0  0  0  0  0  0  0  0
   36.2280    5.2880   12.0830 S   0  0  0  0  0  0  0  0  0  0  0  0
   35.0220    5.9610   11.5740 O   0  0  0  0  0  0  0  0  0  0  0  0
   37.1000    4.8550   10.9940 O   0  0  0  0  0  0  0  0  0  0  0  0
   35.8260    3.9300   13.0890 C   0  0  0  0  0  0  0  0  0  0  0  0
   36.8270    3.0250   13.4630 C   0  0  0  0  0  0  0  0  0  0  0  0
   36.5070    1.9140   14.2480 C   0  0  0  0  0  0  0  0  0  0  0  0
   35.1890    1.7080   14.6710 C   0  0  0  0  0  0  0  0  0  0  0  0
   34.1930    2.6200   14.3090 C   0  0  0  0  0  0  0  0  0  0  0  0
   34.5130    3.7310   13.5200 C   0  0  0  0  0  0  0  0  0  0  0  0
   38.5210    6.2640   13.2530 C   0  0  0  0  0  0  0  0  0  0  0  0
   39.1330    7.5940   13.7280 C   0  0  0  0  0  0  0  0  0  0  0  0
   40.6950   11.0260   15.8060 C   0  0  0  0  0  0  0  0  0  0  0  0
   43.6110   13.5910   16.8520 S   0  0  0  0  0  0  0  0  0  0  0  0
   43.5420   15.0740   15.9260 C   0  0  0  0  0  0  0  0  0  0  0  0
   44.3840   16.2840   16.3380 C   0  0  0  0  0  0  0  0  0  0  0  0
   45.0150   16.1440   17.4110 O   0  0  0  0  0  0  0  0  0  0  0  0
   44.4170   17.2670   15.5970 O   0  5  0  0  0  0  0  0  0  0  0  0
   40.4370   15.7080   13.3670 H   0  0  0  0  0  0  0  0  0  0  0  0
   40.7430   16.6400   14.9040 H   0  0  0  0  0  0  0  0  0  0  0  0
   43.8610   10.6760   17.0430 H   0  0  0  0  0  0  0  0  0  0  0  0
   43.0280    8.3860   17.3740 H   0  0  0  0  0  0  0  0  0  0  0  0
   40.8210    7.6820   16.5510 H   0  0  0  0  0  0  0  0  0  0  0  0
   38.6060   10.1300   14.7470 H   0  0  0  0  0  0  0  0  0  0  0  0
   38.6850    7.3410   15.8600 H   0  0  0  0  0  0  0  0  0  0  0  0
   36.4390    8.3960   15.7990 H   0  0  0  0  0  0  0  0  0  0  0  0
   36.7080    8.9770   14.0930 H   0  0  0  0  0  0  0  0  0  0  0  0
   36.4850    6.0510   15.0920 H   0  0  0  0  0  0  0  0  0  0  0  0
   35.2690    6.9830   14.0900 H   0  0  0  0  0  0  0  0  0  0  0  0
   37.8730    3.1680   13.1610 H   0  0  0  0  0  0  0  0  0  0  0  0
   37.2880    1.2060   14.5440 H   0  0  0  0  0  0  0  0  0  0  0  0
   34.9420    0.8410   15.2910 H   0  0  0  0  0  0  0  0  0  0  0  0
   33.1670    2.4640   14.6540 H   0  0  0  0  0  0  0  0  0  0  0  0
   33.7210    4.4390   13.2540 H   0  0  0  0  0  0  0  0  0  0  0  0
   38.7210    5.4740   14.0290 H   0  0  0  0  0  0  0  0  0  0  0  0
   39.0060    5.9630   12.2890 H   0  0  0  0  0  0  0  0  0  0  0  0
   38.9770    8.3670   12.9460 H   0  0  0  0  0  0  0  0  0  0  0  0
   40.2230    7.4340   13.8980 H   0  0  0  0  0  0  0  0  0  0  0  0
   39.9750   11.7720   15.4730 H   0  0  0  0  0  0  0  0  0  0  0  0
  1  2  2  0  0  0  0
  2  3  1  0  0  0  0
  2  4  1  0  0  0  0
  4  5  1  0  0  0  0
  4 37  1  0  0  0  0
  4 38  1  0  0  0  0
  5  6  1  0  0  0  0
  6 33  2  0  0  0  0
  6  7  1  0  0  0  0
  7  8  1  0  0  0  0
  7  9  2  0  0  0  0
  9 10  1  0  0  0  0
  9 32  1  0  0  0  0
 10 31  2  0  0  0  0
 10 11  1  0  0  0  0
 11 12  2  0  0  0  0
 11 39  1  0  0  0  0
 12 13  1  0  0  0  0
 12 40  1  0  0  0  0
 13 14  2  0  0  0  0
 13 41  1  0  0  0  0
 14 15  1  0  0  0  0
 14 31  1  0  0  0  0
 15 16  1  0  0  0  0
 15 42  1  0  0  0  0
 16 30  1  0  0  0  0
 16 17  1  0  0  0  0
 16 43  1  0  0  0  0
 17 18  1  0  0  0  0
 17 44  1  0  0  0  0
 17 45  1  0  0  0  0
 18 19  1  0  0  0  0
 18 46  1  0  0  0  0
 18 47  1  0  0  0  0
 19 20  1  0  0  0  0
 19 29  1  0  0  0  0
 20 21  2  0  0  0  0
 20 22  2  0  0  0  0
 20 23  1  0  0  0  0
 23 28  2  0  0  0  0
 23 24  1  0  0  0  0
 24 25  2  0  0  0  0
 24 48  1  0  0  0  0
 25 26  1  0  0  0  0
 25 49  1  0  0  0  0
 26 27  2  0  0  0  0
 26 50  1  0  0  0  0
 27 28  1  0  0  0  0
 27 51  1  0  0  0  0
 28 52  1  0  0  0  0
 29 30  1  0  0  0  0
 29 53  1  0  0  0  0
 29 54  1  0  0  0  0
 30 55  1  0  0  0  0
 30 56  1  0  0  0  0
 31 57  1  0  0  0  0
 32 33  1  0  0  0  0
 33 34  1  0  0  0  0
 34 35  2  0  0  0  0
 34 36  1  0  0  0  0
M  CHG  2   3  -1  36  -1
M  END
$$$$
