p38a_3flq
 OpenBabel02232411163D
Structure written by MMmdl.
 47 49  0  0  1  0  0  0  0  0999 V2000
   33.8890   39.2400   23.8350 C   0  0  0  0  0  0  0  0  0  0  0  0
   34.6100   38.0170   21.4660 C   0  0  0  0  0  0  0  0  0  0  0  0
   35.0280   37.3480   20.2620 C   0  0  0  0  0  0  0  0  0  0  0  0
   34.1920   37.2610   22.6010 C   0  0  0  0  0  0  0  0  0  0  0  0
   34.9980   35.9960   20.2270 C   0  0  0  0  0  0  0  0  0  0  0  0
   32.8530   39.3660   26.1890 C   0  0  1  0  0  0  0  0  0  0  0  0
   31.5050   38.7920   25.7450 C   0  0  0  0  0  0  0  0  0  0  0  0
   32.4980   39.3420   29.3280 C   0  0  0  0  0  0  0  0  0  0  0  0
   34.1320   35.8610   22.5300 N   0  0  0  0  0  0  0  0  0  0  0  0
   33.7280   38.3750   26.9750 C   0  0  0  0  0  0  0  0  0  0  0  0
   38.2860   37.1200   14.9620 F   0  0  0  0  0  0  0  0  0  0  0  0
   37.5900   36.6480   15.9940 C   0  0  0  0  0  0  0  0  0  0  0  0
   36.2360   36.3600   15.8060 C   0  0  0  0  0  0  0  0  0  0  0  0
   35.4770   35.9220   16.8970 C   0  0  0  0  0  0  0  0  0  0  0  0
   38.2480   36.5040   17.2230 C   0  0  0  0  0  0  0  0  0  0  0  0
   37.4690   36.0750   18.2950 C   0  0  0  0  0  0  0  0  0  0  0  0
   38.0130   35.9460   19.4970 F   0  0  0  0  0  0  0  0  0  0  0  0
   36.1000   35.7700   18.1390 C   0  0  0  0  0  0  0  0  0  0  0  0
   35.3880   35.1620   19.1830 O   0  0  0  0  0  0  0  0  0  0  0  0
   34.4920   35.1410   21.3360 C   0  0  0  0  0  0  0  0  0  0  0  0
   34.3690   33.9370   21.2970 O   0  0  0  0  0  0  0  0  0  0  0  0
   34.5990   39.4290   21.6010 C   0  0  0  0  0  0  0  0  0  0  0  0
   34.2570   40.0490   22.7410 N   0  0  0  0  0  0  0  0  0  0  0  0
   33.8360   37.8660   23.7840 N   0  0  0  0  0  0  0  0  0  0  0  0
   33.6810   35.1010   23.7310 C   0  0  0  0  0  0  0  0  0  0  0  0
   33.6350   39.9050   25.0220 N   0  0  0  0  0  0  0  0  0  0  0  0
   33.2340   37.9410   28.6090 S   0  0  0  0  0  0  0  0  0  0  0  0
   32.2670   36.8190   28.5920 O   0  0  0  0  0  0  0  0  0  0  0  0
   34.4420   37.5590   29.3870 O   0  0  0  0  0  0  0  0  0  0  0  0
   35.3630   37.9610   19.4220 H   0  0  0  0  0  0  0  0  0  0  0  0
   32.6670   40.2860   26.8220 H   0  0  0  0  0  0  0  0  0  0  0  0
   30.9590   39.5410   25.1240 H   0  0  0  0  0  0  0  0  0  0  0  0
   31.6420   37.8610   25.1460 H   0  0  0  0  0  0  0  0  0  0  0  0
   30.8710   38.5460   26.6260 H   0  0  0  0  0  0  0  0  0  0  0  0
   32.4660   39.2660   30.4490 H   0  0  0  0  0  0  0  0  0  0  0  0
   33.0610   40.2890   29.1120 H   0  0  0  0  0  0  0  0  0  0  0  0
   31.4400   39.5000   29.0050 H   0  0  0  0  0  0  0  0  0  0  0  0
   33.8310   37.4410   26.3510 H   0  0  0  0  0  0  0  0  0  0  0  0
   34.7610   38.8290   27.0200 H   0  0  0  0  0  0  0  0  0  0  0  0
   35.7590   36.4870   14.8310 H   0  0  0  0  0  0  0  0  0  0  0  0
   34.4090   35.7170   16.7710 H   0  0  0  0  0  0  0  0  0  0  0  0
   39.3060   36.7530   17.3420 H   0  0  0  0  0  0  0  0  0  0  0  0
   34.8640   40.0680   20.7430 H   0  0  0  0  0  0  0  0  0  0  0  0
   33.6580   34.0030   23.5100 H   0  0  0  0  0  0  0  0  0  0  0  0
   34.3810   35.2950   24.5880 H   0  0  0  0  0  0  0  0  0  0  0  0
   32.6520   35.4400   24.0300 H   0  0  0  0  0  0  0  0  0  0  0  0
   33.6520   40.9460   25.0010 H   0  0  0  0  0  0  0  0  0  0  0  0
  1 23  2  0  0  0  0
  1 24  1  0  0  0  0
  1 26  1  0  0  0  0
  2  3  1  0  0  0  0
  2  4  1  0  0  0  0
  2 22  2  0  0  0  0
  3  5  2  0  0  0  0
  3 30  1  0  0  0  0
  4  9  1  0  0  0  0
  4 24  2  0  0  0  0
  5 19  1  0  0  0  0
  5 20  1  0  0  0  0
  6  7  1  0  0  0  0
  6 10  1  0  0  0  0
  6 26  1  0  0  0  0
  6 31  1  6  0  0  0
  7 32  1  0  0  0  0
  7 33  1  0  0  0  0
  7 34  1  0  0  0  0
  8 27  1  0  0  0  0
  8 35  1  0  0  0  0
  8 36  1  0  0  0  0
  8 37  1  0  0  0  0
  9 20  1  0  0  0  0
  9 25  1  0  0  0  0
 10 27  1  0  0  0  0
 10 38  1  0  0  0  0
 10 39  1  0  0  0  0
 11 12  1  0  0  0  0
 12 13  2  0  0  0  0
 12 15  1  0  0  0  0
 13 14  1  0  0  0  0
 13 40  1  0  0  0  0
 14 18  2  0  0  0  0
 14 41  1  0  0  0  0
 15 16  2  0  0  0  0
 15 42  1  0  0  0  0
 16 17  1  0  0  0  0
 16 18  1  0  0  0  0
 18 19  1  0  0  0  0
 20 21  2  0  0  0  0
 22 23  1  0  0  0  0
 22 43  1  0  0  0  0
 25 44  1  0  0  0  0
 25 45  1  0  0  0  0
 25 46  1  0  0  0  0
 26 47  1  0  0  0  0
 27 28  2  0  0  0  0
 27 29  2  0  0  0  0
M  END
$$$$
