p38a_2i
 OpenBabel02232411163D
Structure written by MMmdl.
 48 51  0  0  0  0  0  0  0  0999 V2000
   34.5510   38.3060   27.1720 C   0  0  0  0  0  0  0  0  0  0  0  0
   34.0270   37.8150   28.5280 C   0  0  0  0  0  0  0  0  0  0  0  0
   31.7600   38.4600   27.9950 C   0  0  0  0  0  0  0  0  0  0  0  0
   32.1690   38.9690   26.6070 C   0  0  0  0  0  0  0  0  0  0  0  0
   37.1280   35.5490   16.1540 C   0  0  0  0  0  0  0  0  0  0  0  0
   32.6400   37.4110   28.4570 O   0  0  0  0  0  0  0  0  0  0  0  0
   34.2570   35.2330   21.4960 C   0  0  0  0  0  0  0  0  0  0  0  0
   35.9580   35.3310   16.8820 C   0  0  0  0  0  0  0  0  0  0  0  0
   34.1650   39.2910   24.1360 C   0  0  0  0  0  0  0  0  0  0  0  0
   33.6420   39.4310   26.6460 C   0  0  0  0  0  0  0  0  0  0  0  0
   34.4250   38.0830   21.6730 C   0  0  0  0  0  0  0  0  0  0  0  0
   34.5370   37.4270   20.4050 C   0  0  0  0  0  0  0  0  0  0  0  0
   38.2530   36.0130   16.8410 C   0  0  0  0  0  0  0  0  0  0  0  0
   38.1950   36.2120   18.2230 C   0  0  0  0  0  0  0  0  0  0  0  0
   37.0090   35.9870   18.9270 C   0  0  0  0  0  0  0  0  0  0  0  0
   34.2450   37.3130   22.8610 C   0  0  0  0  0  0  0  0  0  0  0  0
   34.4720   39.4970   21.8120 C   0  0  0  0  0  0  0  0  0  0  0  0
   34.4540   36.0750   20.3090 C   0  0  0  0  0  0  0  0  0  0  0  0
   35.8470   35.5630   18.2670 C   0  0  0  0  0  0  0  0  0  0  0  0
   34.0740   35.1190   24.0260 C   0  0  0  0  0  0  0  0  0  0  0  0
   34.9010   34.8490   16.2220 F   0  0  0  0  0  0  0  0  0  0  0  0
   34.5320   35.3800   18.9770 C   0  0  0  0  0  0  0  0  0  0  0  0
   34.3460   40.1090   22.9920 N   0  0  0  0  0  0  0  0  0  0  0  0
   34.1370   34.0210   21.5140 O   0  0  0  0  0  0  0  0  0  0  0  0
   34.1960   35.9210   22.7760 N   0  0  0  0  0  0  0  0  0  0  0  0
   34.1040   37.9160   24.0930 N   0  0  0  0  0  0  0  0  0  0  0  0
   34.1020   39.9730   25.3320 N   0  0  0  0  0  0  0  0  0  0  0  0
   35.5930   38.6880   27.2910 H   0  0  0  0  0  0  0  0  0  0  0  0
   34.5720   37.4510   26.4520 H   0  0  0  0  0  0  0  0  0  0  0  0
   34.5330   36.8680   28.8330 H   0  0  0  0  0  0  0  0  0  0  0  0
   34.1340   38.6020   29.3100 H   0  0  0  0  0  0  0  0  0  0  0  0
   31.7630   39.2880   28.7410 H   0  0  0  0  0  0  0  0  0  0  0  0
   30.7720   37.9450   27.9620 H   0  0  0  0  0  0  0  0  0  0  0  0
   32.0430   38.1500   25.8590 H   0  0  0  0  0  0  0  0  0  0  0  0
   31.5140   39.8220   26.3120 H   0  0  0  0  0  0  0  0  0  0  0  0
   37.1670   35.3860   15.0770 H   0  0  0  0  0  0  0  0  0  0  0  0
   33.7240   40.3190   27.3470 H   0  0  0  0  0  0  0  0  0  0  0  0
   34.6980   38.0530   19.5210 H   0  0  0  0  0  0  0  0  0  0  0  0
   39.0810   36.5670   18.7480 H   0  0  0  0  0  0  0  0  0  0  0  0
   36.9890   36.1690   20.0030 H   0  0  0  0  0  0  0  0  0  0  0  0
   34.6030   40.1310   20.9180 H   0  0  0  0  0  0  0  0  0  0  0  0
   34.9310   35.3520   24.7130 H   0  0  0  0  0  0  0  0  0  0  0  0
   33.1140   35.3670   24.5520 H   0  0  0  0  0  0  0  0  0  0  0  0
   34.0880   34.0240   23.7800 H   0  0  0  0  0  0  0  0  0  0  0  0
   34.0370   41.0140   25.2850 H   0  0  0  0  0  0  0  0  0  0  0  0
   39.1720   36.2360   16.3030 H   0  0  0  0  0  0  0  0  0  0  0  0
   34.3350   34.2820   19.1050 H   0  0  0  0  0  0  0  0  0  0  0  0
   33.7040   35.8000   18.3380 H   0  0  0  0  0  0  0  0  0  0  0  0
  1  2  1  0  0  0  0
  1 10  1  0  0  0  0
  1 28  1  0  0  0  0
  1 29  1  0  0  0  0
  2  6  1  0  0  0  0
  2 30  1  0  0  0  0
  2 31  1  0  0  0  0
  3  4  1  0  0  0  0
  3  6  1  0  0  0  0
  3 32  1  0  0  0  0
  3 33  1  0  0  0  0
  4 10  1  0  0  0  0
  4 34  1  0  0  0  0
  4 35  1  0  0  0  0
  5  8  2  0  0  0  0
  5 13  1  0  0  0  0
  5 36  1  0  0  0  0
  7 18  1  0  0  0  0
  7 24  2  0  0  0  0
  7 25  1  0  0  0  0
  8 19  1  0  0  0  0
  8 21  1  0  0  0  0
  9 23  2  0  0  0  0
  9 26  1  0  0  0  0
  9 27  1  0  0  0  0
 10 27  1  0  0  0  0
 10 37  1  0  0  0  0
 11 12  1  0  0  0  0
 11 16  1  0  0  0  0
 11 17  2  0  0  0  0
 12 18  2  0  0  0  0
 12 38  1  0  0  0  0
 13 14  2  0  0  0  0
 13 46  1  0  0  0  0
 14 15  1  0  0  0  0
 14 39  1  0  0  0  0
 15 19  2  0  0  0  0
 15 40  1  0  0  0  0
 16 25  1  0  0  0  0
 16 26  2  0  0  0  0
 17 23  1  0  0  0  0
 17 41  1  0  0  0  0
 18 22  1  0  0  0  0
 19 22  1  0  0  0  0
 20 25  1  0  0  0  0
 20 42  1  0  0  0  0
 20 43  1  0  0  0  0
 20 44  1  0  0  0  0
 22 47  1  0  0  0  0
 22 48  1  0  0  0  0
 27 45  1  0  0  0  0
M  END
$$$$
