p38a_2aa
 OpenBabel02232411163D
Structure written by MMmdl.
 43 45  0  0  0  0  0  0  0  0999 V2000
   38.2780   36.5330   17.1840 C   0  0  0  0  0  0  0  0  0  0  0  0
   34.5850   35.1390   21.2950 C   0  0  0  0  0  0  0  0  0  0  0  0
   37.4930   36.0940   18.2470 C   0  0  0  0  0  0  0  0  0  0  0  0
   33.9960   39.2350   23.7910 C   0  0  0  0  0  0  0  0  0  0  0  0
   33.6440   39.1710   26.2720 C   0  0  0  0  0  0  0  0  0  0  0  0
   34.6420   38.0190   21.4060 C   0  0  0  0  0  0  0  0  0  0  0  0
   35.0270   37.3520   20.1910 C   0  0  0  0  0  0  0  0  0  0  0  0
   37.6310   36.6760   15.9490 C   0  0  0  0  0  0  0  0  0  0  0  0
   36.2820   36.3730   15.7470 C   0  0  0  0  0  0  0  0  0  0  0  0
   35.5170   35.9230   16.8280 C   0  0  0  0  0  0  0  0  0  0  0  0
   34.3360   37.2550   22.5710 C   0  0  0  0  0  0  0  0  0  0  0  0
   34.5640   39.4320   21.5260 C   0  0  0  0  0  0  0  0  0  0  0  0
   35.0320   35.9990   20.1650 C   0  0  0  0  0  0  0  0  0  0  0  0
   36.1290   35.7770   18.0770 C   0  0  0  0  0  0  0  0  0  0  0  0
   33.9860   35.0860   23.7490 C   0  0  0  0  0  0  0  0  0  0  0  0
   38.0270   35.9690   19.4550 F   0  0  0  0  0  0  0  0  0  0  0  0
   35.4050   35.1690   19.1120 O   0  0  0  0  0  0  0  0  0  0  0  0
   34.2560   40.0520   22.6780 N   0  0  0  0  0  0  0  0  0  0  0  0
   34.4370   33.9380   21.2500 O   0  0  0  0  0  0  0  0  0  0  0  0
   34.3200   35.8530   22.5160 N   0  0  0  0  0  0  0  0  0  0  0  0
   34.0380   37.8590   23.7690 N   0  0  0  0  0  0  0  0  0  0  0  0
   33.5790   39.8670   24.9540 N   0  0  0  0  0  0  0  0  0  0  0  0
   39.3330   36.7910   17.3150 H   0  0  0  0  0  0  0  0  0  0  0  0
   33.8450   40.1970   27.4180 C   0  0  0  0  0  0  0  0  0  0  0  0
   35.3130   37.9640   19.3330 H   0  0  0  0  0  0  0  0  0  0  0  0
   35.8140   36.4980   14.7680 H   0  0  0  0  0  0  0  0  0  0  0  0
   34.4530   35.7050   16.6910 H   0  0  0  0  0  0  0  0  0  0  0  0
   34.7560   40.0700   20.6470 H   0  0  0  0  0  0  0  0  0  0  0  0
   34.6770   35.3830   24.5850 H   0  0  0  0  0  0  0  0  0  0  0  0
   32.9320   35.3080   24.0670 H   0  0  0  0  0  0  0  0  0  0  0  0
   34.0890   33.9850   23.5630 H   0  0  0  0  0  0  0  0  0  0  0  0
   33.6660   40.9000   25.0000 H   0  0  0  0  0  0  0  0  0  0  0  0
   38.3290   37.1630   14.9270 F   0  0  0  0  0  0  0  0  0  0  0  0
   32.3290   38.3830   26.5150 C   0  0  0  0  0  0  0  0  0  0  0  0
   31.1980   39.2530   26.6330 O   0  0  0  0  0  0  0  0  0  0  0  0
   31.0710   39.7560   25.7980 H   0  0  0  0  0  0  0  0  0  0  0  0
   32.1470   37.6490   25.6970 H   0  0  0  0  0  0  0  0  0  0  0  0
   32.3660   37.8740   27.5100 H   0  0  0  0  0  0  0  0  0  0  0  0
   34.9550   41.0710   27.1630 O   0  0  0  0  0  0  0  0  0  0  0  0
   32.9250   40.8090   27.5680 H   0  0  0  0  0  0  0  0  0  0  0  0
   34.1360   39.6590   28.3530 H   0  0  0  0  0  0  0  0  0  0  0  0
   34.6230   41.7960   26.5420 H   0  0  0  0  0  0  0  0  0  0  0  0
   34.4950   38.4310   26.2870 H   0  0  0  0  0  0  0  0  0  0  0  0
  1  3  2  0  0  0  0
  1  8  1  0  0  0  0
  1 23  1  0  0  0  0
  2 13  1  0  0  0  0
  2 19  2  0  0  0  0
  2 20  1  0  0  0  0
  3 14  1  0  0  0  0
  3 16  1  0  0  0  0
  4 18  2  0  0  0  0
  4 21  1  0  0  0  0
  4 22  1  0  0  0  0
  5 22  1  0  0  0  0
  5 24  1  0  0  0  0
  5 34  1  0  0  0  0
  5 43  1  0  0  0  0
  6  7  1  0  0  0  0
  6 11  1  0  0  0  0
  6 12  2  0  0  0  0
  7 13  2  0  0  0  0
  7 25  1  0  0  0  0
  8  9  2  0  0  0  0
  8 33  1  0  0  0  0
  9 10  1  0  0  0  0
  9 26  1  0  0  0  0
 10 14  2  0  0  0  0
 10 27  1  0  0  0  0
 11 20  1  0  0  0  0
 11 21  2  0  0  0  0
 12 18  1  0  0  0  0
 12 28  1  0  0  0  0
 13 17  1  0  0  0  0
 14 17  1  0  0  0  0
 15 20  1  0  0  0  0
 15 29  1  0  0  0  0
 15 30  1  0  0  0  0
 15 31  1  0  0  0  0
 22 32  1  0  0  0  0
 24 39  1  0  0  0  0
 24 40  1  0  0  0  0
 24 41  1  0  0  0  0
 34 35  1  0  0  0  0
 34 37  1  0  0  0  0
 34 38  1  0  0  0  0
 35 36  1  0  0  0  0
 39 42  1  0  0  0  0
M  END
$$$$
