p38a_2o
 OpenBabel02232411163D
Structure written by MMmdl.
 55 58  0  0  0  0  0  0  0  0999 V2000
   36.3650   36.0020   15.8310 C   0  0  0  0  0  0  0  0  0  0  0  0
   34.5560   34.9760   21.3690 C   0  0  0  0  0  0  0  0  0  0  0  0
   35.7030   35.5280   16.9590 C   0  0  0  0  0  0  0  0  0  0  0  0
   34.0500   39.0620   23.9170 C   0  0  0  0  0  0  0  0  0  0  0  0
   34.7800   37.8440   21.5490 C   0  0  0  0  0  0  0  0  0  0  0  0
   35.2270   37.1760   20.3550 C   0  0  0  0  0  0  0  0  0  0  0  0
   37.6520   36.5160   16.0320 C   0  0  0  0  0  0  0  0  0  0  0  0
   38.2890   36.5340   17.2760 C   0  0  0  0  0  0  0  0  0  0  0  0
   37.5890   36.0860   18.4020 C   0  0  0  0  0  0  0  0  0  0  0  0
   34.3140   37.0830   22.6590 C   0  0  0  0  0  0  0  0  0  0  0  0
   34.7920   39.2570   21.7020 C   0  0  0  0  0  0  0  0  0  0  0  0
   35.1520   35.8260   20.3000 C   0  0  0  0  0  0  0  0  0  0  0  0
   36.2930   35.5880   18.2380 C   0  0  0  0  0  0  0  0  0  0  0  0
   34.4940   34.9910   16.8560 F   0  0  0  0  0  0  0  0  0  0  0  0
   35.5590   34.9850   19.2680 O   0  0  0  0  0  0  0  0  0  0  0  0
   34.4480   39.8790   22.8410 N   0  0  0  0  0  0  0  0  0  0  0  0
   34.3640   33.7840   21.2840 O   0  0  0  0  0  0  0  0  0  0  0  0
   34.2230   35.6800   22.5810 N   0  0  0  0  0  0  0  0  0  0  0  0
   33.9530   37.6840   23.8370 N   0  0  0  0  0  0  0  0  0  0  0  0
   33.7310   39.6630   25.1090 N   0  0  0  0  0  0  0  0  0  0  0  0
   35.8960   36.0000   14.8440 H   0  0  0  0  0  0  0  0  0  0  0  0
   35.6250   37.7900   19.5440 H   0  0  0  0  0  0  0  0  0  0  0  0
   39.3070   36.9210   17.3800 H   0  0  0  0  0  0  0  0  0  0  0  0
   38.0480   36.1550   19.3910 H   0  0  0  0  0  0  0  0  0  0  0  0
   35.0930   39.8960   20.8550 H   0  0  0  0  0  0  0  0  0  0  0  0
   33.7830   40.6930   25.2070 H   0  0  0  0  0  0  0  0  0  0  0  0
   38.2840   37.0440   14.9860 F   0  0  0  0  0  0  0  0  0  0  0  0
   33.3250   40.6130   28.1810 C   0  0  0  0  0  0  0  0  0  0  0  0
   32.4510   39.7740   27.2390 C   0  0  0  0  0  0  0  0  0  0  0  0
   33.2580   38.8660   26.2890 C   0  0  0  0  0  0  0  0  0  0  0  0
   34.4350   38.1890   27.0210 C   0  0  0  0  0  0  0  0  0  0  0  0
   35.2230   39.1720   27.8860 C   0  0  0  0  0  0  0  0  0  0  0  0
   34.3530   39.8380   28.8320 O   0  0  0  0  0  0  0  0  0  0  0  0
   32.7270   40.9920   29.0410 H   0  0  0  0  0  0  0  0  0  0  0  0
   33.8120   41.4450   27.6260 H   0  0  0  0  0  0  0  0  0  0  0  0
   31.8050   40.4600   26.6390 H   0  0  0  0  0  0  0  0  0  0  0  0
   31.7800   39.1100   27.8400 H   0  0  0  0  0  0  0  0  0  0  0  0
   32.5650   38.0650   25.8960 H   0  0  0  0  0  0  0  0  0  0  0  0
   34.0060   37.3750   27.6600 H   0  0  0  0  0  0  0  0  0  0  0  0
   35.1180   37.7080   26.2780 H   0  0  0  0  0  0  0  0  0  0  0  0
   35.9390   38.6460   28.5570 H   0  0  0  0  0  0  0  0  0  0  0  0
   35.7270   39.9410   27.2580 H   0  0  0  0  0  0  0  0  0  0  0  0
   33.6830   34.9100   23.7610 C   0  0  0  0  0  0  0  0  0  0  0  0
   34.1200   33.8750   23.7140 H   0  0  0  0  0  0  0  0  0  0  0  0
   34.0380   35.4290   24.7000 H   0  0  0  0  0  0  0  0  0  0  0  0
   32.1550   34.8710   23.7270 C   0  0  0  0  0  0  0  0  0  0  0  0
   31.7800   35.9370   23.7050 H   0  0  0  0  0  0  0  0  0  0  0  0
   31.8020   34.4100   22.7670 H   0  0  0  0  0  0  0  0  0  0  0  0
   31.4120   34.0280   25.0970 S   0  0  0  0  0  0  0  0  0  0  0  0
   32.4260   33.5520   26.0600 O   0  0  0  0  0  0  0  0  0  0  0  0
   30.6260   32.8780   24.5880 O   0  0  0  0  0  0  0  0  0  0  0  0
   30.3730   35.2180   25.8050 C   0  0  0  0  0  0  0  0  0  0  0  0
   29.6100   35.6170   25.0860 H   0  0  0  0  0  0  0  0  0  0  0  0
   29.7960   34.8370   26.6900 H   0  0  0  0  0  0  0  0  0  0  0  0
   30.9410   36.1090   26.1900 H   0  0  0  0  0  0  0  0  0  0  0  0
  1  3  2  0  0  0  0
  1  7  1  0  0  0  0
  1 21  1  0  0  0  0
  2 12  1  0  0  0  0
  2 17  2  0  0  0  0
  2 18  1  0  0  0  0
  3 13  1  0  0  0  0
  3 14  1  0  0  0  0
  4 16  2  0  0  0  0
  4 19  1  0  0  0  0
  4 20  1  0  0  0  0
  5  6  1  0  0  0  0
  5 10  1  0  0  0  0
  5 11  2  0  0  0  0
  6 12  2  0  0  0  0
  6 22  1  0  0  0  0
  7  8  2  0  0  0  0
  7 27  1  0  0  0  0
  8  9  1  0  0  0  0
  8 23  1  0  0  0  0
  9 13  2  0  0  0  0
  9 24  1  0  0  0  0
 10 18  1  0  0  0  0
 10 19  2  0  0  0  0
 11 16  1  0  0  0  0
 11 25  1  0  0  0  0
 12 15  1  0  0  0  0
 13 15  1  0  0  0  0
 18 43  1  0  0  0  0
 20 26  1  0  0  0  0
 20 30  1  0  0  0  0
 28 29  1  0  0  0  0
 28 33  1  0  0  0  0
 28 34  1  0  0  0  0
 28 35  1  0  0  0  0
 29 30  1  0  0  0  0
 29 36  1  0  0  0  0
 29 37  1  0  0  0  0
 30 31  1  0  0  0  0
 30 38  1  0  0  0  0
 31 32  1  0  0  0  0
 31 39  1  0  0  0  0
 31 40  1  0  0  0  0
 32 33  1  0  0  0  0
 32 41  1  0  0  0  0
 32 42  1  0  0  0  0
 43 44  1  0  0  0  0
 43 45  1  0  0  0  0
 43 46  1  0  0  0  0
 46 47  1  0  0  0  0
 46 48  1  0  0  0  0
 46 49  1  0  0  0  0
 49 50  2  0  0  0  0
 49 51  2  0  0  0  0
 49 52  1  0  0  0  0
 52 53  1  0  0  0  0
 52 54  1  0  0  0  0
 52 55  1  0  0  0  0
M  END
$$$$
