CAT-13m
                    3D
 Schrodinger Suite 2022-3.
 44 47  0  0  1  0  0  0  0  0999 V2000
   11.7400   -2.4040    1.3210 C   0  0  0  0  0  0  0  0  0  0  0  0
   13.0190   -2.8060    0.6990 N   0  0  0  0  0  0  0  0  0  0  0  0
   14.2300   -2.7470    1.4040 C   0  0  0  0  0  0  0  0  0  0  0  0
   14.3720   -2.6540    2.7550 N   0  0  0  0  0  0  0  0  0  0  0  0
   15.2860   -2.9050    0.5270 N   0  3  0  0  0  0  0  0  0  0  0  0
   14.8200   -3.1710   -0.8890 C   0  0  2  0  0  0  0  0  0  0  0  0
   15.1280   -4.5980   -1.2570 C   0  0  0  0  0  0  0  0  0  0  0  0
   16.3750   -5.1730   -0.9190 C   0  0  0  0  0  0  0  0  0  0  0  0
   16.6300   -6.4880   -1.1230 N   0  0  0  0  0  0  0  0  0  0  0  0
   15.6310   -7.2540   -1.6610 C   0  0  0  0  0  0  0  0  0  0  0  0
   14.4310   -6.7570   -2.0880 N   0  0  0  0  0  0  0  0  0  0  0  0
   14.1930   -5.4370   -1.9060 C   0  0  0  0  0  0  0  0  0  0  0  0
   15.3580   -2.0770   -1.7900 C   0  0  0  0  0  0  0  0  0  0  0  0
   16.0830   -2.3570   -2.9520 C   0  0  0  0  0  0  0  0  0  0  0  0
   16.5220   -1.2990   -3.7600 C   0  0  0  0  0  0  0  0  0  0  0  0
   16.2440    0.0250   -3.4200 C   0  0  0  0  0  0  0  0  0  0  0  0
   15.5240    0.3150   -2.2460 C   0  0  0  0  0  0  0  0  0  0  0  0
   15.2250    1.7100   -1.8470 C   0  0  0  0  0  0  0  0  0  0  0  0
   14.6470    2.6100   -2.7550 C   0  0  0  0  0  0  0  0  0  0  0  0
   14.3490    3.9180   -2.3580 C   0  0  0  0  0  0  0  0  0  0  0  0
   14.6010    4.3400   -1.0490 C   0  0  0  0  0  0  0  0  0  0  0  0
   15.1600    3.4270   -0.1520 C   0  0  0  0  0  0  0  0  0  0  0  0
   15.4040    3.8880    1.4910 Cl  0  0  0  0  0  0  0  0  0  0  0  0
   15.4920    2.1260   -0.5330 C   0  0  0  0  0  0  0  0  0  0  0  0
   15.0820   -0.7430   -1.4430 C   0  0  0  0  0  0  0  0  0  0  0  0
   13.2640   -2.9670   -0.7360 C   0  0  0  0  0  0  0  0  0  0  0  0
   12.3900   -2.9480   -1.5430 O   0  0  0  0  0  0  0  0  0  0  0  0
   10.8910   -2.6810    0.6410 H   0  0  0  0  0  0  0  0  0  0  0  0
   11.6090   -2.9360    2.3020 H   0  0  0  0  0  0  0  0  0  0  0  0
   11.7490   -1.2950    1.4920 H   0  0  0  0  0  0  0  0  0  0  0  0
   15.3460   -2.5490    3.1530 H   0  0  0  0  0  0  0  0  0  0  0  0
   16.2640   -3.0560    0.8700 H   0  0  0  0  0  0  0  0  0  0  0  0
   17.1780   -4.5690   -0.4660 H   0  0  0  0  0  0  0  0  0  0  0  0
   15.8060   -8.3470   -1.7500 H   0  0  0  0  0  0  0  0  0  0  0  0
   13.2310   -5.0500   -2.2870 H   0  0  0  0  0  0  0  0  0  0  0  0
   16.3050   -3.3860   -3.2340 H   0  0  0  0  0  0  0  0  0  0  0  0
   17.0970   -1.5140   -4.6670 H   0  0  0  0  0  0  0  0  0  0  0  0
   16.5920    0.8380   -4.0670 H   0  0  0  0  0  0  0  0  0  0  0  0
   14.4120    2.2790   -3.7710 H   0  0  0  0  0  0  0  0  0  0  0  0
   13.9000    4.6120   -3.0790 H   0  0  0  0  0  0  0  0  0  0  0  0
   14.3460    5.3550   -0.7360 H   0  0  0  0  0  0  0  0  0  0  0  0
   15.9350    1.4260    0.1740 H   0  0  0  0  0  0  0  0  0  0  0  0
   14.5170   -0.5310   -0.5370 H   0  0  0  0  0  0  0  0  0  0  0  0
   13.6420   -2.1830    3.3460 H   0  0  0  0  0  0  0  0  0  0  0  0
  1  2  1  0  0  0  0
  1 28  1  0  0  0  0
  1 29  1  0  0  0  0
  1 30  1  0  0  0  0
  2  3  1  0  0  0  0
  2 26  1  0  0  0  0
  3  4  1  0  0  0  0
  3  5  2  0  0  0  0
  4 31  1  0  0  0  0
  4 44  1  0  0  0  0
  5  6  1  0  0  0  0
  5 32  1  0  0  0  0
  6  7  1  0  0  0  0
  6 13  1  0  0  0  0
  6 26  1  0  0  0  0
  7  8  2  0  0  0  0
  7 12  1  0  0  0  0
  8  9  1  0  0  0  0
  8 33  1  0  0  0  0
  9 10  2  0  0  0  0
 10 11  1  0  0  0  0
 10 34  1  0  0  0  0
 11 12  2  0  0  0  0
 12 35  1  0  0  0  0
 13 14  2  0  0  0  0
 13 25  1  0  0  0  0
 14 15  1  0  0  0  0
 14 36  1  0  0  0  0
 15 16  2  0  0  0  0
 15 37  1  0  0  0  0
 16 17  1  0  0  0  0
 16 38  1  0  0  0  0
 17 18  1  0  0  0  0
 17 25  2  0  0  0  0
 18 19  2  0  0  0  0
 18 24  1  0  0  0  0
 19 20  1  0  0  0  0
 19 39  1  0  0  0  0
 20 21  2  0  0  0  0
 20 40  1  0  0  0  0
 21 22  1  0  0  0  0
 21 41  1  0  0  0  0
 22 23  1  0  0  0  0
 22 24  2  0  0  0  0
 24 42  1  0  0  0  0
 25 43  1  0  0  0  0
 26 27  2  0  0  0  0
M  CHG  1   5   1
M  END
$$$$
