p38a_3flw
 OpenBabel02232411163D
Structure written by MMmdl.
 49 51  0  0  0  0  0  0  0  0999 V2000
   38.2670   36.5240   17.1700 C   0  0  0  0  0  0  0  0  0  0  0  0
   37.6260   36.6810   15.9340 C   0  0  0  0  0  0  0  0  0  0  0  0
   34.1910   39.8400   27.4180 C   0  0  0  0  0  0  0  0  0  0  0  0
   33.8310   39.2010   28.7640 C   0  0  0  0  0  0  0  0  0  0  0  0
   31.9390   39.4790   26.2490 C   0  0  0  0  0  0  0  0  0  0  0  0
   34.0260   35.0940   23.7300 C   0  0  0  0  0  0  0  0  0  0  0  0
   38.0030   35.9370   19.4340 F   0  0  0  0  0  0  0  0  0  0  0  0
   37.4770   36.0720   18.2240 C   0  0  0  0  0  0  0  0  0  0  0  0
   38.3300   37.1800   14.9200 F   0  0  0  0  0  0  0  0  0  0  0  0
   36.2780   36.3830   15.7210 C   0  0  0  0  0  0  0  0  0  0  0  0
   35.5080   35.9190   16.7930 C   0  0  0  0  0  0  0  0  0  0  0  0
   36.1130   35.7570   18.0420 C   0  0  0  0  0  0  0  0  0  0  0  0
   35.3780   35.1500   19.0710 O   0  0  0  0  0  0  0  0  0  0  0  0
   35.0320   35.9840   20.1320 C   0  0  0  0  0  0  0  0  0  0  0  0
   35.0610   37.3360   20.1540 C   0  0  0  0  0  0  0  0  0  0  0  0
   34.7210   38.0140   21.3750 C   0  0  0  0  0  0  0  0  0  0  0  0
   34.6870   39.4290   21.4900 C   0  0  0  0  0  0  0  0  0  0  0  0
   34.4360   40.0610   22.6480 N   0  0  0  0  0  0  0  0  0  0  0  0
   34.5820   35.1390   21.2710 C   0  0  0  0  0  0  0  0  0  0  0  0
   34.4080   33.9410   21.2380 O   0  0  0  0  0  0  0  0  0  0  0  0
   34.3430   35.8640   22.4940 N   0  0  0  0  0  0  0  0  0  0  0  0
   34.4120   37.2620   22.5470 C   0  0  0  0  0  0  0  0  0  0  0  0
   34.1540   37.8800   23.7480 N   0  0  0  0  0  0  0  0  0  0  0  0
   34.2030   39.2610   23.7790 C   0  0  0  0  0  0  0  0  0  0  0  0
   34.0620   39.9040   24.9920 N   0  0  0  0  0  0  0  0  0  0  0  0
   33.4640   39.2370   26.1930 C   0  0  0  0  0  0  0  0  0  0  0  0
   31.1490   39.0360   25.0090 C   0  0  0  0  0  0  0  0  0  0  0  0
   31.2850   37.6370   24.7270 O   0  0  0  0  0  0  0  0  0  0  0  0
   34.3940   37.8890   28.9290 O   0  0  0  0  0  0  0  0  0  0  0  0
   39.3210   36.7810   17.3090 H   0  0  0  0  0  0  0  0  0  0  0  0
   33.9490   40.9340   27.4870 H   0  0  0  0  0  0  0  0  0  0  0  0
   35.2950   39.7490   27.2570 H   0  0  0  0  0  0  0  0  0  0  0  0
   34.3050   39.7820   29.5930 H   0  0  0  0  0  0  0  0  0  0  0  0
   32.7280   39.1430   28.9110 H   0  0  0  0  0  0  0  0  0  0  0  0
   31.5360   38.9360   27.1390 H   0  0  0  0  0  0  0  0  0  0  0  0
   31.7610   40.5730   26.3980 H   0  0  0  0  0  0  0  0  0  0  0  0
   34.6030   35.5050   24.6020 H   0  0  0  0  0  0  0  0  0  0  0  0
   32.9290   35.1660   23.9540 H   0  0  0  0  0  0  0  0  0  0  0  0
   34.3020   34.0150   23.5930 H   0  0  0  0  0  0  0  0  0  0  0  0
   35.8140   36.5230   14.7430 H   0  0  0  0  0  0  0  0  0  0  0  0
   34.4440   35.7040   16.6470 H   0  0  0  0  0  0  0  0  0  0  0  0
   35.3450   37.9400   19.2900 H   0  0  0  0  0  0  0  0  0  0  0  0
   34.8540   40.0580   20.6010 H   0  0  0  0  0  0  0  0  0  0  0  0
   33.9590   40.9400   25.0040 H   0  0  0  0  0  0  0  0  0  0  0  0
   33.6730   38.1360   26.1470 H   0  0  0  0  0  0  0  0  0  0  0  0
   30.0560   39.1530   25.1940 H   0  0  0  0  0  0  0  0  0  0  0  0
   31.4710   39.6130   24.1140 H   0  0  0  0  0  0  0  0  0  0  0  0
   32.2390   37.4460   24.5620 H   0  0  0  0  0  0  0  0  0  0  0  0
   34.0610   37.3000   28.2090 H   0  0  0  0  0  0  0  0  0  0  0  0
  1  2  2  0  0  0  0
  1  8  1  0  0  0  0
  1 30  1  0  0  0  0
  2  9  1  0  0  0  0
  2 10  1  0  0  0  0
  3  4  1  0  0  0  0
  3 26  1  0  0  0  0
  3 31  1  0  0  0  0
  3 32  1  0  0  0  0
  4 29  1  0  0  0  0
  4 33  1  0  0  0  0
  4 34  1  0  0  0  0
  5 26  1  0  0  0  0
  5 27  1  0  0  0  0
  5 35  1  0  0  0  0
  5 36  1  0  0  0  0
  6 21  1  0  0  0  0
  6 37  1  0  0  0  0
  6 38  1  0  0  0  0
  6 39  1  0  0  0  0
  7  8  1  0  0  0  0
  8 12  2  0  0  0  0
 10 11  2  0  0  0  0
 10 40  1  0  0  0  0
 11 12  1  0  0  0  0
 11 41  1  0  0  0  0
 12 13  1  0  0  0  0
 13 14  1  0  0  0  0
 14 15  2  0  0  0  0
 14 19  1  0  0  0  0
 15 16  1  0  0  0  0
 15 42  1  0  0  0  0
 16 17  2  0  0  0  0
 16 22  1  0  0  0  0
 17 18  1  0  0  0  0
 17 43  1  0  0  0  0
 18 24  2  0  0  0  0
 19 20  2  0  0  0  0
 19 21  1  0  0  0  0
 21 22  1  0  0  0  0
 22 23  2  0  0  0  0
 23 24  1  0  0  0  0
 24 25  1  0  0  0  0
 25 26  1  0  0  0  0
 25 44  1  0  0  0  0
 26 45  1  0  0  0  0
 27 28  1  0  0  0  0
 27 46  1  0  0  0  0
 27 47  1  0  0  0  0
 28 48  1  0  0  0  0
 29 49  1  0  0  0  0
M  END
$$$$
