CAT-4i
                    3D
 Schrodinger Suite 2022-3.
 45 48  0  0  1  0  0  0  0  0999 V2000
   11.7710   -2.4390    1.2840 C   0  0  0  0  0  0  0  0  0  0  0  0
   13.0580   -2.8230    0.6700 N   0  0  0  0  0  0  0  0  0  0  0  0
   14.2600   -2.7360    1.3820 C   0  0  0  0  0  0  0  0  0  0  0  0
   14.3870   -2.6340    2.7350 N   0  0  0  0  0  0  0  0  0  0  0  0
   15.3300   -2.8540    0.5090 N   0  3  0  0  0  0  0  0  0  0  0  0
   14.8760   -3.1970   -0.8960 C   0  0  2  0  0  0  0  0  0  0  0  0
   15.2770   -4.6250   -1.2120 C   0  0  0  0  0  0  0  0  0  0  0  0
   14.3620   -5.5550   -1.7240 C   0  0  0  0  0  0  0  0  0  0  0  0
   14.7380   -6.8940   -1.8740 C   0  0  0  0  0  0  0  0  0  0  0  0
   16.0240   -7.3100   -1.5200 C   0  0  0  0  0  0  0  0  0  0  0  0
   16.9600   -6.3700   -1.0760 C   0  0  0  0  0  0  0  0  0  0  0  0
   16.5920   -5.0320   -0.9290 C   0  0  0  0  0  0  0  0  0  0  0  0
   15.3450   -2.1170   -1.8530 C   0  0  0  0  0  0  0  0  0  0  0  0
   15.9480   -2.4290   -3.0750 C   0  0  0  0  0  0  0  0  0  0  0  0
   16.2920   -1.3950   -3.9560 C   0  0  0  0  0  0  0  0  0  0  0  0
   16.0320   -0.0620   -3.6370 C   0  0  0  0  0  0  0  0  0  0  0  0
   15.4300    0.2550   -2.4060 C   0  0  0  0  0  0  0  0  0  0  0  0
   15.1170    1.6590   -2.0360 C   0  0  0  0  0  0  0  0  0  0  0  0
   15.5280    2.2020   -0.8060 C   0  0  0  0  0  0  0  0  0  0  0  0
   15.1880    3.5250   -0.5020 C   0  0  0  0  0  0  0  0  0  0  0  0
   14.4460    4.2660   -1.4220 C   0  0  0  0  0  0  0  0  0  0  0  0
   14.0670    3.6590   -2.6330 C   0  0  0  0  0  0  0  0  0  0  0  0
   14.3920    2.3780   -2.9440 N   0  0  0  0  0  0  0  0  0  0  0  0
   15.0990   -0.7730   -1.5170 C   0  0  0  0  0  0  0  0  0  0  0  0
   13.3180   -3.0450   -0.7610 C   0  0  0  0  0  0  0  0  0  0  0  0
   12.4440   -3.0670   -1.5670 O   0  0  0  0  0  0  0  0  0  0  0  0
   11.6380   -2.9790    2.2620 H   0  0  0  0  0  0  0  0  0  0  0  0
   11.7680   -1.3320    1.4690 H   0  0  0  0  0  0  0  0  0  0  0  0
   10.9270   -2.7170    0.5980 H   0  0  0  0  0  0  0  0  0  0  0  0
   15.3560   -2.5220    3.1430 H   0  0  0  0  0  0  0  0  0  0  0  0
   16.2880   -3.0880    0.8770 H   0  0  0  0  0  0  0  0  0  0  0  0
   13.3520   -5.2560   -2.0130 H   0  0  0  0  0  0  0  0  0  0  0  0
   14.0130   -7.6210   -2.2560 H   0  0  0  0  0  0  0  0  0  0  0  0
   16.2940   -8.3680   -1.5690 H   0  0  0  0  0  0  0  0  0  0  0  0
   17.9750   -6.6800   -0.8130 H   0  0  0  0  0  0  0  0  0  0  0  0
   17.3300   -4.3070   -0.5790 H   0  0  0  0  0  0  0  0  0  0  0  0
   16.1510   -3.4680   -3.3450 H   0  0  0  0  0  0  0  0  0  0  0  0
   16.7750   -1.6350   -4.9080 H   0  0  0  0  0  0  0  0  0  0  0  0
   16.3030    0.7300   -4.3460 H   0  0  0  0  0  0  0  0  0  0  0  0
   16.0920    1.5970   -0.0970 H   0  0  0  0  0  0  0  0  0  0  0  0
   15.4990    3.9620    0.4520 H   0  0  0  0  0  0  0  0  0  0  0  0
   14.1510    5.2960   -1.2070 H   0  0  0  0  0  0  0  0  0  0  0  0
   13.4770    4.2160   -3.3830 H   0  0  0  0  0  0  0  0  0  0  0  0
   14.6530   -0.5360   -0.5530 H   0  0  0  0  0  0  0  0  0  0  0  0
   13.6510   -2.1720    3.3230 H   0  0  0  0  0  0  0  0  0  0  0  0
  1  2  1  0  0  0  0
  1 27  1  0  0  0  0
  1 28  1  0  0  0  0
  1 29  1  0  0  0  0
  2  3  1  0  0  0  0
  2 25  1  0  0  0  0
  3  4  1  0  0  0  0
  3  5  2  0  0  0  0
  4 30  1  0  0  0  0
  4 45  1  0  0  0  0
  5  6  1  0  0  0  0
  5 31  1  0  0  0  0
  6  7  1  0  0  0  0
  6 13  1  0  0  0  0
  6 25  1  0  0  0  0
  7  8  2  0  0  0  0
  7 12  1  0  0  0  0
  8  9  1  0  0  0  0
  8 32  1  0  0  0  0
  9 10  2  0  0  0  0
  9 33  1  0  0  0  0
 10 11  1  0  0  0  0
 10 34  1  0  0  0  0
 11 12  2  0  0  0  0
 11 35  1  0  0  0  0
 12 36  1  0  0  0  0
 13 14  2  0  0  0  0
 13 24  1  0  0  0  0
 14 15  1  0  0  0  0
 14 37  1  0  0  0  0
 15 16  2  0  0  0  0
 15 38  1  0  0  0  0
 16 17  1  0  0  0  0
 16 39  1  0  0  0  0
 17 18  1  0  0  0  0
 17 24  2  0  0  0  0
 18 19  2  0  0  0  0
 18 23  1  0  0  0  0
 19 20  1  0  0  0  0
 19 40  1  0  0  0  0
 20 21  2  0  0  0  0
 20 41  1  0  0  0  0
 21 22  1  0  0  0  0
 21 42  1  0  0  0  0
 22 23  2  0  0  0  0
 22 43  1  0  0  0  0
 24 44  1  0  0  0  0
 25 26  2  0  0  0  0
M  CHG  1   5   1
M  END
$$$$
