30
 OpenBabel02232411153D
Structure written by MMmdl.
 51 54  0  0  0  0  0  0  0  0999 V2000
    1.9630   28.9000    6.6880 C   0  0  0  0  0  0  0  0  0  0  0  0
   -1.5160   31.4550    7.9350 C   0  0  0  0  0  0  0  0  0  0  0  0
    0.1310   26.0420    8.9470 C   0  0  0  0  0  0  0  0  0  0  0  0
   -0.7330   25.3200    9.9880 C   0  0  0  0  0  0  0  0  0  0  0  0
   -0.6330   23.8020    9.7240 C   0  0  0  0  0  0  0  0  0  0  0  0
   -1.3960   23.0020   10.7890 C   0  0  0  0  0  0  0  0  0  0  0  0
   -0.9320   23.3570   12.2100 C   0  0  0  0  0  0  0  0  0  0  0  0
   -1.0480   24.8670   12.4720 C   0  0  0  0  0  0  0  0  0  0  0  0
   -0.2810   25.6770   11.4170 C   0  0  0  0  0  0  0  0  0  0  0  0
    4.6910   25.3850    7.4540 C   0  0  0  0  0  0  0  0  0  0  0  0
    5.5590   25.0540    6.4040 C   0  0  0  0  0  0  0  0  0  0  0  0
    5.5940   25.8720    5.2680 C   0  0  0  0  0  0  0  0  0  0  0  0
    4.7870   26.9970    5.1840 C   0  0  0  0  0  0  0  0  0  0  0  0
    1.2970   27.9420    7.4430 N   0  0  0  0  0  0  0  0  0  0  0  0
    0.1060   28.2590    8.0200 C   0  0  0  0  0  0  0  0  0  0  0  0
   -0.5380   27.3600    8.7740 O   0  0  0  0  0  0  0  0  0  0  0  0
   -0.4480   29.5560    7.8460 C   0  0  0  0  0  0  0  0  0  0  0  0
   -1.5980   30.1840    8.3370 N   0  0  0  0  0  0  0  0  0  0  0  0
   -0.3160   31.7120    7.1820 N   0  0  0  0  0  0  0  0  0  0  0  0
    0.3600   30.5000    7.0920 C   0  0  0  0  0  0  0  0  0  0  0  0
    1.5490   30.2020    6.4730 N   0  0  0  0  0  0  0  0  0  0  0  0
    3.1490   28.5180    6.0590 N   0  0  0  0  0  0  0  0  0  0  0  0
    3.9040   27.3250    6.2410 C   0  0  0  0  0  0  0  0  0  0  0  0
    3.8690   26.5120    7.3860 C   0  0  0  0  0  0  0  0  0  0  0  0
   -2.2280   32.2490    8.1410 H   0  0  0  0  0  0  0  0  0  0  0  0
    1.1670   26.2190    9.3080 H   0  0  0  0  0  0  0  0  0  0  0  0
    0.1100   25.5510    7.9540 H   0  0  0  0  0  0  0  0  0  0  0  0
   -1.7980   25.6410    9.8700 H   0  0  0  0  0  0  0  0  0  0  0  0
   -1.0580   23.5720    8.7210 H   0  0  0  0  0  0  0  0  0  0  0  0
    0.4410   23.4940    9.7400 H   0  0  0  0  0  0  0  0  0  0  0  0
   -2.4820   23.2280   10.7000 H   0  0  0  0  0  0  0  0  0  0  0  0
   -1.2370   21.9120   10.6190 H   0  0  0  0  0  0  0  0  0  0  0  0
   -1.5570   22.8050   12.9500 H   0  0  0  0  0  0  0  0  0  0  0  0
    0.1300   23.0450   12.3380 H   0  0  0  0  0  0  0  0  0  0  0  0
   -2.1220   25.1620   12.4700 H   0  0  0  0  0  0  0  0  0  0  0  0
   -0.6260   25.0990   13.4780 H   0  0  0  0  0  0  0  0  0  0  0  0
    0.8100   25.4640   11.5310 H   0  0  0  0  0  0  0  0  0  0  0  0
   -0.4450   26.7640   11.5980 H   0  0  0  0  0  0  0  0  0  0  0  0
    4.6500   24.7690    8.3650 H   0  0  0  0  0  0  0  0  0  0  0  0
    6.2570   25.6570    4.4220 H   0  0  0  0  0  0  0  0  0  0  0  0
    4.8550   27.6320    4.3030 H   0  0  0  0  0  0  0  0  0  0  0  0
   -0.0690   32.6020    6.7230 H   0  0  0  0  0  0  0  0  0  0  0  0
    3.6060   29.2130    5.4150 H   0  0  0  0  0  0  0  0  0  0  0  0
    3.2100   26.7480    8.2260 H   0  0  0  0  0  0  0  0  0  0  0  0
    6.6000   23.6840    6.5610 S   0  0  0  0  0  0  0  0  0  0  0  0
    7.2140   23.7930    7.8930 O   0  0  0  0  0  0  0  0  0  0  0  0
    5.8250   22.4400    6.3710 O   0  0  0  0  0  0  0  0  0  0  0  0
    7.8520   23.7830    5.3670 C   0  0  0  0  0  0  0  0  0  0  0  0
    8.6750   23.0450    5.5620 H   0  0  0  0  0  0  0  0  0  0  0  0
    7.4950   23.5740    4.3230 H   0  0  0  0  0  0  0  0  0  0  0  0
    8.3470   24.7910    5.3270 H   0  0  0  0  0  0  0  0  0  0  0  0
  1 14  2  0  0  0  0
  1 21  1  0  0  0  0
  1 22  1  0  0  0  0
  2 18  2  0  0  0  0
  2 19  1  0  0  0  0
  2 25  1  0  0  0  0
  3  4  1  0  0  0  0
  3 16  1  0  0  0  0
  3 26  1  0  0  0  0
  3 27  1  0  0  0  0
  4  5  1  0  0  0  0
  4  9  1  0  0  0  0
  4 28  1  0  0  0  0
  5  6  1  0  0  0  0
  5 29  1  0  0  0  0
  5 30  1  0  0  0  0
  6  7  1  0  0  0  0
  6 31  1  0  0  0  0
  6 32  1  0  0  0  0
  7  8  1  0  0  0  0
  7 33  1  0  0  0  0
  7 34  1  0  0  0  0
  8  9  1  0  0  0  0
  8 35  1  0  0  0  0
  8 36  1  0  0  0  0
  9 37  1  0  0  0  0
  9 38  1  0  0  0  0
 10 11  2  0  0  0  0
 10 24  1  0  0  0  0
 10 39  1  0  0  0  0
 11 12  1  0  0  0  0
 11 45  1  0  0  0  0
 12 13  2  0  0  0  0
 12 40  1  0  0  0  0
 13 23  1  0  0  0  0
 13 41  1  0  0  0  0
 14 15  1  0  0  0  0
 15 16  1  0  0  0  0
 15 17  2  0  0  0  0
 17 18  1  0  0  0  0
 17 20  1  0  0  0  0
 19 20  1  0  0  0  0
 19 42  1  0  0  0  0
 20 21  2  0  0  0  0
 22 23  1  0  0  0  0
 22 43  1  0  0  0  0
 23 24  2  0  0  0  0
 24 44  1  0  0  0  0
 45 46  2  0  0  0  0
 45 47  2  0  0  0  0
 45 48  1  0  0  0  0
 48 49  1  0  0  0  0
 48 50  1  0  0  0  0
 48 51  1  0  0  0  0
M  END
$$$$
