3b
 OpenBabel02232411173D

 58 60  0  0  1  0  0  0  0  0999 V2000
   18.0440  -13.0430   21.4840 N   0  0  0  0  0  0  0  0  0  0  0  0
   17.7950  -11.6800   20.9220 C   0  0  2  0  0  0  0  0  0  0  0  0
   17.1810  -13.6000   22.3890 C   0  0  0  0  0  0  0  0  0  0  0  0
   16.1680  -13.0020   22.7450 O   0  0  0  0  0  0  0  0  0  0  0  0
   16.3640  -11.5590   20.3230 C   0  0  0  0  0  0  0  0  0  0  0  0
   15.8260  -12.4380   19.6680 O   0  0  0  0  0  0  0  0  0  0  0  0
   18.8750  -11.4830   19.8410 C   0  0  0  0  0  0  0  0  0  0  0  0
   17.5070  -15.0160   22.9430 C   0  0  2  0  0  0  0  0  0  0  0  0
   15.7950  -10.3130   20.5210 N   0  0  0  0  0  0  0  0  0  0  0  0
   19.9440  -12.5690   20.0620 C   0  0  0  0  0  0  0  0  0  0  0  0
   16.2090  -15.8450   22.9100 N   0  3  0  0  0  0  0  0  0  0  0  0
   18.0160  -14.9600   24.3960 C   0  0  0  0  0  0  0  0  0  0  0  0
   14.4110   -9.9540   20.1260 C   0  0  0  0  0  0  0  0  0  0  0  0
   19.3030  -13.6510   20.9530 C   0  0  0  0  0  0  0  0  0  0  0  0
   19.4700  -14.5690   24.5020 C   0  0  0  0  0  0  0  0  0  0  0  0
   13.3780  -10.3590   21.1510 C   0  0  0  0  0  0  0  0  0  0  0  0
   19.8390  -13.4250   25.2190 C   0  0  0  0  0  0  0  0  0  0  0  0
   13.1430   -9.5340   22.2630 C   0  0  0  0  0  0  0  0  0  0  0  0
   21.1860  -13.0720   25.3500 C   0  0  0  0  0  0  0  0  0  0  0  0
   12.1540   -9.8680   23.1940 C   0  0  0  0  0  0  0  0  0  0  0  0
   22.1800  -13.8830   24.7970 C   0  0  0  0  0  0  0  0  0  0  0  0
   11.4080  -11.0480   22.9960 C   0  0  0  0  0  0  0  0  0  0  0  0
   21.8170  -15.0430   24.1020 C   0  0  0  0  0  0  0  0  0  0  0  0
   11.6740  -11.8860   21.9160 C   0  0  0  0  0  0  0  0  0  0  0  0
   20.4710  -15.3830   23.9470 C   0  0  0  0  0  0  0  0  0  0  0  0
   12.6510  -11.5400   20.9770 C   0  0  0  0  0  0  0  0  0  0  0  0
   17.9440  -10.9280   21.7470 H   0  0  0  0  0  0  0  0  0  0  0  0
   18.4460  -11.5770   18.8170 H   0  0  0  0  0  0  0  0  0  0  0  0
   19.3180  -10.4740   19.9650 H   0  0  0  0  0  0  0  0  0  0  0  0
   18.2480  -15.5790   22.3050 H   0  0  0  0  0  0  0  0  0  0  0  0
   16.2700   -9.6370   21.1480 H   0  0  0  0  0  0  0  0  0  0  0  0
   20.2690  -13.0170   19.0930 H   0  0  0  0  0  0  0  0  0  0  0  0
   20.8390  -12.1400   20.5690 H   0  0  0  0  0  0  0  0  0  0  0  0
   16.4040  -16.8150   23.2990 H   0  0  0  0  0  0  0  0  0  0  0  0
   15.4520  -15.3670   23.4990 H   0  0  0  0  0  0  0  0  0  0  0  0
   15.8700  -15.9600   21.9150 H   0  0  0  0  0  0  0  0  0  0  0  0
   17.3760  -14.2620   24.9930 H   0  0  0  0  0  0  0  0  0  0  0  0
   17.9220  -15.9870   24.8550 H   0  0  0  0  0  0  0  0  0  0  0  0
   14.4080   -8.8350   19.9990 H   0  0  0  0  0  0  0  0  0  0  0  0
   14.1870  -10.4240   19.1280 H   0  0  0  0  0  0  0  0  0  0  0  0
   19.9820  -13.9240   21.8010 H   0  0  0  0  0  0  0  0  0  0  0  0
   19.0610  -14.5660   20.3530 H   0  0  0  0  0  0  0  0  0  0  0  0
   19.0760  -12.8190   25.7000 H   0  0  0  0  0  0  0  0  0  0  0  0
   13.7460   -8.6370   22.3920 H   0  0  0  0  0  0  0  0  0  0  0  0
   21.4380  -12.1580   25.8930 H   0  0  0  0  0  0  0  0  0  0  0  0
   23.2360  -13.6270   24.9130 H   0  0  0  0  0  0  0  0  0  0  0  0
   22.5810  -15.7010   23.6760 H   0  0  0  0  0  0  0  0  0  0  0  0
   11.1170  -12.8200   21.8100 H   0  0  0  0  0  0  0  0  0  0  0  0
   20.1980  -16.2920   23.4060 H   0  0  0  0  0  0  0  0  0  0  0  0
   12.8320  -12.1930   20.1220 H   0  0  0  0  0  0  0  0  0  0  0  0
   10.6140  -11.3220   23.6960 H   0  0  0  0  0  0  0  0  0  0  0  0
   11.8920   -9.0970   24.4630 C   0  0  0  0  0  0  0  0  0  0  0  0
   12.3680   -9.7020   25.2740 H   0  0  0  0  0  0  0  0  0  0  0  0
   10.7870   -9.0850   24.6590 H   0  0  0  0  0  0  0  0  0  0  0  0
   12.4150   -7.6650   24.5590 C   0  0  0  0  0  0  0  0  0  0  0  0
   11.7330   -6.9640   24.0430 H   0  0  0  0  0  0  0  0  0  0  0  0
   12.4520   -7.3500   25.6250 H   0  0  0  0  0  0  0  0  0  0  0  0
   13.4460   -7.5840   24.1590 H   0  0  0  0  0  0  0  0  0  0  0  0
  1  2  1  0  0  0  0
  1 14  1  0  0  0  0
  1  3  1  0  0  0  0
  2  5  1  0  0  0  0
  2  7  1  0  0  0  0
  2 27  1  1  0  0  0
  3  8  1  0  0  0  0
  3  4  2  0  0  0  0
  5  6  2  0  0  0  0
  5  9  1  0  0  0  0
  7 10  1  0  0  0  0
  7 28  1  0  0  0  0
  7 29  1  0  0  0  0
  8 11  1  0  0  0  0
  8 12  1  0  0  0  0
  8 30  1  6  0  0  0
  9 13  1  0  0  0  0
  9 31  1  0  0  0  0
 10 14  1  0  0  0  0
 10 32  1  0  0  0  0
 10 33  1  0  0  0  0
 11 34  1  0  0  0  0
 11 35  1  0  0  0  0
 11 36  1  0  0  0  0
 12 15  1  0  0  0  0
 12 37  1  0  0  0  0
 12 38  1  0  0  0  0
 13 16  1  0  0  0  0
 13 39  1  0  0  0  0
 13 40  1  0  0  0  0
 14 41  1  0  0  0  0
 14 42  1  0  0  0  0
 15 17  2  0  0  0  0
 15 25  1  0  0  0  0
 16 18  2  0  0  0  0
 16 26  1  0  0  0  0
 17 19  1  0  0  0  0
 17 43  1  0  0  0  0
 18 20  1  0  0  0  0
 18 44  1  0  0  0  0
 19 21  2  0  0  0  0
 19 45  1  0  0  0  0
 20 22  2  0  0  0  0
 20 52  1  0  0  0  0
 21 23  1  0  0  0  0
 21 46  1  0  0  0  0
 22 24  1  0  0  0  0
 22 51  1  0  0  0  0
 23 25  2  0  0  0  0
 23 47  1  0  0  0  0
 24 26  2  0  0  0  0
 24 48  1  0  0  0  0
 25 49  1  0  0  0  0
 26 50  1  0  0  0  0
 52 53  1  0  0  0  0
 52 54  1  0  0  0  0
 52 55  1  0  0  0  0
 55 56  1  0  0  0  0
 55 57  1  0  0  0  0
 55 58  1  0  0  0  0
M  CHG  1  11   1
M  END
$$$$
