1a
 OpenBabel02232411173D

 52 54  0  0  1  0  0  0  0  0999 V2000
   18.0860  -13.0710   21.5150 N   0  0  0  0  0  0  0  0  0  0  0  0
   17.8510  -11.7190   20.9180 C   0  0  2  0  0  0  0  0  0  0  0  0
   17.1930  -13.6220   22.3940 C   0  0  0  0  0  0  0  0  0  0  0  0
   16.1910  -13.0070   22.7540 O   0  0  0  0  0  0  0  0  0  0  0  0
   16.4220  -11.6160   20.3160 C   0  0  0  0  0  0  0  0  0  0  0  0
   15.9080  -12.4990   19.6450 O   0  0  0  0  0  0  0  0  0  0  0  0
   18.9290  -11.5610   19.8290 C   0  0  0  0  0  0  0  0  0  0  0  0
   17.4750  -15.0500   22.9380 C   0  0  2  0  0  0  0  0  0  0  0  0
   15.8120  -10.3940   20.5380 N   0  0  0  0  0  0  0  0  0  0  0  0
   19.9820  -12.6580   20.0710 C   0  0  0  0  0  0  0  0  0  0  0  0
   16.1550  -15.8420   22.8730 N   0  3  0  0  0  0  0  0  0  0  0  0
   17.9630  -15.0190   24.4000 C   0  0  0  0  0  0  0  0  0  0  0  0
   14.4140  -10.0940   20.1490 C   0  0  0  0  0  0  0  0  0  0  0  0
   19.3190  -13.7190   20.9690 C   0  0  0  0  0  0  0  0  0  0  0  0
   19.4080  -14.6000   24.5260 C   0  0  0  0  0  0  0  0  0  0  0  0
   13.4140  -10.4610   21.2210 C   0  0  0  0  0  0  0  0  0  0  0  0
   20.4290  -15.3940   23.9790 C   0  0  0  0  0  0  0  0  0  0  0  0
   12.7030  -11.6650   21.1430 C   0  0  0  0  0  0  0  0  0  0  0  0
   21.7660  -15.0280   24.1430 C   0  0  0  0  0  0  0  0  0  0  0  0
   11.7250  -11.9680   22.0960 C   0  0  0  0  0  0  0  0  0  0  0  0
   22.1010  -13.8620   24.8440 C   0  0  0  0  0  0  0  0  0  0  0  0
   11.4250  -11.0680   23.1220 C   0  0  0  0  0  0  0  0  0  0  0  0
   21.0880  -13.0720   25.3920 C   0  0  0  0  0  0  0  0  0  0  0  0
   12.1730   -9.8900   23.1930 C   0  0  0  0  0  0  0  0  0  0  0  0
   19.7480  -13.4500   25.2480 C   0  0  0  0  0  0  0  0  0  0  0  0
   13.1710   -9.5630   22.2710 C   0  0  0  0  0  0  0  0  0  0  0  0
   18.0030  -10.9500   21.7250 H   0  0  0  0  0  0  0  0  0  0  0  0
   18.4920  -11.6740   18.8100 H   0  0  0  0  0  0  0  0  0  0  0  0
   19.3900  -10.5560   19.9240 H   0  0  0  0  0  0  0  0  0  0  0  0
   18.2120  -15.6250   22.3060 H   0  0  0  0  0  0  0  0  0  0  0  0
   16.2780   -9.6920   21.1410 H   0  0  0  0  0  0  0  0  0  0  0  0
   20.3050  -13.1210   19.1080 H   0  0  0  0  0  0  0  0  0  0  0  0
   20.8800  -12.2350   20.5780 H   0  0  0  0  0  0  0  0  0  0  0  0
   16.3090  -16.8120   23.2780 H   0  0  0  0  0  0  0  0  0  0  0  0
   15.3910  -15.3350   23.4270 H   0  0  0  0  0  0  0  0  0  0  0  0
   15.8460  -15.9600   21.8670 H   0  0  0  0  0  0  0  0  0  0  0  0
   17.3030  -14.3460   25.0030 H   0  0  0  0  0  0  0  0  0  0  0  0
   17.8830  -16.0580   24.8300 H   0  0  0  0  0  0  0  0  0  0  0  0
   14.3660   -8.9860   19.9520 H   0  0  0  0  0  0  0  0  0  0  0  0
   14.1790  -10.6320   19.1870 H   0  0  0  0  0  0  0  0  0  0  0  0
   19.9980  -14.0110   21.8110 H   0  0  0  0  0  0  0  0  0  0  0  0
   19.0420  -14.6250   20.3710 H   0  0  0  0  0  0  0  0  0  0  0  0
   20.1770  -16.3070   23.4330 H   0  0  0  0  0  0  0  0  0  0  0  0
   12.9010  -12.3770   20.3390 H   0  0  0  0  0  0  0  0  0  0  0  0
   22.5460  -15.6680   23.7190 H   0  0  0  0  0  0  0  0  0  0  0  0
   11.1870  -12.9180   22.0370 H   0  0  0  0  0  0  0  0  0  0  0  0
   23.1520  -13.5860   24.9660 H   0  0  0  0  0  0  0  0  0  0  0  0
   21.3190  -12.1550   25.9400 H   0  0  0  0  0  0  0  0  0  0  0  0
   11.9320   -9.0360   24.1890 F   0  0  0  0  0  0  0  0  0  0  0  0
   18.9700  -12.8580   25.7210 H   0  0  0  0  0  0  0  0  0  0  0  0
   13.7470   -8.6430   22.3570 H   0  0  0  0  0  0  0  0  0  0  0  0
   10.6260  -11.2990   23.8320 H   0  0  0  0  0  0  0  0  0  0  0  0
  1  2  1  0  0  0  0
  1 14  1  0  0  0  0
  1  3  1  0  0  0  0
  2  5  1  0  0  0  0
  2  7  1  0  0  0  0
  2 27  1  1  0  0  0
  3  8  1  0  0  0  0
  3  4  2  0  0  0  0
  5  6  2  0  0  0  0
  5  9  1  0  0  0  0
  7 10  1  0  0  0  0
  7 28  1  0  0  0  0
  7 29  1  0  0  0  0
  8 11  1  0  0  0  0
  8 12  1  0  0  0  0
  8 30  1  6  0  0  0
  9 13  1  0  0  0  0
  9 31  1  0  0  0  0
 10 14  1  0  0  0  0
 10 32  1  0  0  0  0
 10 33  1  0  0  0  0
 11 34  1  0  0  0  0
 11 35  1  0  0  0  0
 11 36  1  0  0  0  0
 12 15  1  0  0  0  0
 12 37  1  0  0  0  0
 12 38  1  0  0  0  0
 13 16  1  0  0  0  0
 13 39  1  0  0  0  0
 13 40  1  0  0  0  0
 14 41  1  0  0  0  0
 14 42  1  0  0  0  0
 15 17  2  0  0  0  0
 15 25  1  0  0  0  0
 16 18  2  0  0  0  0
 16 26  1  0  0  0  0
 17 19  1  0  0  0  0
 17 43  1  0  0  0  0
 18 20  1  0  0  0  0
 18 44  1  0  0  0  0
 19 21  2  0  0  0  0
 19 45  1  0  0  0  0
 20 22  2  0  0  0  0
 20 46  1  0  0  0  0
 21 23  1  0  0  0  0
 21 47  1  0  0  0  0
 22 24  1  0  0  0  0
 22 52  1  0  0  0  0
 23 25  2  0  0  0  0
 23 48  1  0  0  0  0
 24 26  2  0  0  0  0
 24 49  1  0  0  0  0
 25 50  1  0  0  0  0
 26 51  1  0  0  0  0
M  CHG  1  11   1
M  END
$$$$
