p38a_2j
 OpenBabel02232411163D
Structure written by MMmdl.
 48 51  0  0  0  0  0  0  0  0999 V2000
   32.7590   40.0470   27.5200 C   0  0  0  0  0  0  0  0  0  0  0  0
   33.6730   40.9480   28.3590 C   0  0  0  0  0  0  0  0  0  0  0  0
   35.5800   39.5280   28.0150 C   0  0  0  0  0  0  0  0  0  0  0  0
   34.7650   38.4980   27.2320 C   0  0  0  0  0  0  0  0  0  0  0  0
   36.3360   36.3310   15.8320 C   0  0  0  0  0  0  0  0  0  0  0  0
   34.7520   40.2190   28.9800 O   0  0  0  0  0  0  0  0  0  0  0  0
   34.2870   35.1220   21.5920 C   0  0  0  0  0  0  0  0  0  0  0  0
   35.4850   35.8700   16.8390 C   0  0  0  0  0  0  0  0  0  0  0  0
   34.1180   39.2390   24.1190 C   0  0  0  0  0  0  0  0  0  0  0  0
   33.5230   39.1160   26.5570 C   0  0  0  0  0  0  0  0  0  0  0  0
   34.6250   37.9630   21.7200 C   0  0  0  0  0  0  0  0  0  0  0  0
   34.9040   37.2540   20.5020 C   0  0  0  0  0  0  0  0  0  0  0  0
   38.1350   36.3830   17.5010 C   0  0  0  0  0  0  0  0  0  0  0  0
   37.2400   35.9330   18.4760 C   0  0  0  0  0  0  0  0  0  0  0  0
   34.2100   37.2380   22.8780 C   0  0  0  0  0  0  0  0  0  0  0  0
   34.7250   39.3750   21.8540 C   0  0  0  0  0  0  0  0  0  0  0  0
   34.7550   35.9070   20.4350 C   0  0  0  0  0  0  0  0  0  0  0  0
   35.8970   35.6520   18.1660 C   0  0  0  0  0  0  0  0  0  0  0  0
   33.5840   35.1210   24.0290 C   0  0  0  0  0  0  0  0  0  0  0  0
   34.2220   35.6250   16.4900 F   0  0  0  0  0  0  0  0  0  0  0  0
   34.9700   35.0760   19.1990 C   0  0  0  0  0  0  0  0  0  0  0  0
   34.4810   40.0240   23.0010 N   0  0  0  0  0  0  0  0  0  0  0  0
   34.0850   33.9200   21.6120 O   0  0  0  0  0  0  0  0  0  0  0  0
   34.0420   35.8530   22.8150 N   0  0  0  0  0  0  0  0  0  0  0  0
   33.9630   37.8660   24.0730 N   0  0  0  0  0  0  0  0  0  0  0  0
   33.8910   39.8720   25.3140 N   0  0  0  0  0  0  0  0  0  0  0  0
   32.1500   39.3990   28.2000 H   0  0  0  0  0  0  0  0  0  0  0  0
   32.0550   40.6920   26.9410 H   0  0  0  0  0  0  0  0  0  0  0  0
   34.1100   41.7600   27.7360 H   0  0  0  0  0  0  0  0  0  0  0  0
   33.1250   41.3630   29.2370 H   0  0  0  0  0  0  0  0  0  0  0  0
   36.3380   39.0370   28.6670 H   0  0  0  0  0  0  0  0  0  0  0  0
   36.0380   40.2800   27.3340 H   0  0  0  0  0  0  0  0  0  0  0  0
   35.4170   38.0090   26.4670 H   0  0  0  0  0  0  0  0  0  0  0  0
   34.4060   37.6930   27.9240 H   0  0  0  0  0  0  0  0  0  0  0  0
   35.9790   36.4960   14.8130 H   0  0  0  0  0  0  0  0  0  0  0  0
   32.8270   38.2760   26.2560 H   0  0  0  0  0  0  0  0  0  0  0  0
   35.2380   37.8360   19.6350 H   0  0  0  0  0  0  0  0  0  0  0  0
   39.1740   36.6050   17.7550 H   0  0  0  0  0  0  0  0  0  0  0  0
   37.5890   35.8150   19.5050 H   0  0  0  0  0  0  0  0  0  0  0  0
   35.0110   39.9850   20.9800 H   0  0  0  0  0  0  0  0  0  0  0  0
   34.2930   35.3050   24.8800 H   0  0  0  0  0  0  0  0  0  0  0  0
   32.5640   35.4780   24.3320 H   0  0  0  0  0  0  0  0  0  0  0  0
   33.5410   34.0190   23.8200 H   0  0  0  0  0  0  0  0  0  0  0  0
   33.9790   40.9020   25.3860 H   0  0  0  0  0  0  0  0  0  0  0  0
   35.3890   34.0810   19.5120 H   0  0  0  0  0  0  0  0  0  0  0  0
   33.9500   34.8910   18.7590 H   0  0  0  0  0  0  0  0  0  0  0  0
   37.6570   36.5850   16.2030 C   0  0  0  0  0  0  0  0  0  0  0  0
   38.4810   37.0770   15.2800 F   0  0  0  0  0  0  0  0  0  0  0  0
  1  2  1  0  0  0  0
  1 10  1  0  0  0  0
  1 27  1  0  0  0  0
  1 28  1  0  0  0  0
  2  6  1  0  0  0  0
  2 29  1  0  0  0  0
  2 30  1  0  0  0  0
  3  4  1  0  0  0  0
  3  6  1  0  0  0  0
  3 31  1  0  0  0  0
  3 32  1  0  0  0  0
  4 10  1  0  0  0  0
  4 33  1  0  0  0  0
  4 34  1  0  0  0  0
  5  8  2  0  0  0  0
  5 35  1  0  0  0  0
  5 47  1  0  0  0  0
  7 17  1  0  0  0  0
  7 23  2  0  0  0  0
  7 24  1  0  0  0  0
  8 18  1  0  0  0  0
  8 20  1  0  0  0  0
  9 22  2  0  0  0  0
  9 25  1  0  0  0  0
  9 26  1  0  0  0  0
 10 26  1  0  0  0  0
 10 36  1  0  0  0  0
 11 12  1  0  0  0  0
 11 15  1  0  0  0  0
 11 16  2  0  0  0  0
 12 17  2  0  0  0  0
 12 37  1  0  0  0  0
 13 14  1  0  0  0  0
 13 38  1  0  0  0  0
 13 47  2  0  0  0  0
 14 18  2  0  0  0  0
 14 39  1  0  0  0  0
 15 24  1  0  0  0  0
 15 25  2  0  0  0  0
 16 22  1  0  0  0  0
 16 40  1  0  0  0  0
 17 21  1  0  0  0  0
 18 21  1  0  0  0  0
 19 24  1  0  0  0  0
 19 41  1  0  0  0  0
 19 42  1  0  0  0  0
 19 43  1  0  0  0  0
 21 45  1  0  0  0  0
 21 46  1  0  0  0  0
 26 44  1  0  0  0  0
 47 48  1  0  0  0  0
M  END
$$$$
