CAT-17f
 OpenBabel02232411143D
Structure written by MMmdl.
 43 46  0  0  1  0  0  0  0  0999 V2000
   11.6200   -2.3820    1.2650 C   0  0  0  0  0  0  0  0  0  0  0  0
   12.9660   -2.4090    0.6550 N   0  0  0  0  0  0  0  0  0  0  0  0
   14.1550   -2.3820    1.3770 C   0  0  0  0  0  0  0  0  0  0  0  0
   14.3030   -2.4530    2.7290 N   0  0  0  0  0  0  0  0  0  0  0  0
   15.2460   -2.3340    0.4980 N   0  3  0  0  0  0  0  0  0  0  0  0
   14.7980   -2.6860   -0.9010 C   0  0  1  0  0  0  0  0  0  0  0  0
   15.3790   -1.6720   -1.8630 C   0  0  0  0  0  0  0  0  0  0  0  0
   16.2690   -2.0460   -2.8760 C   0  0  0  0  0  0  0  0  0  0  0  0
   16.7320   -1.0800   -3.7770 C   0  0  0  0  0  0  0  0  0  0  0  0
   16.3340    0.2530   -3.6610 C   0  0  0  0  0  0  0  0  0  0  0  0
   15.4880    0.6430   -2.6110 C   0  0  0  0  0  0  0  0  0  0  0  0
   15.0980    2.0500   -2.4010 C   0  0  0  0  0  0  0  0  0  0  0  0
   14.5450    2.8360   -3.4360 C   0  0  0  0  0  0  0  0  0  0  0  0
   14.0820    4.0940   -3.2220 N   0  0  0  0  0  0  0  0  0  0  0  0
   14.1540    4.6200   -1.9740 C   0  0  0  0  0  0  0  0  0  0  0  0
   14.7410    3.9140   -0.8970 C   0  0  0  0  0  0  0  0  0  0  0  0
   14.8180    4.4770    0.4130 C   0  0  0  0  0  0  0  0  0  0  0  0
   14.8770    4.9240    1.4780 N   0  0  0  0  0  0  0  0  0  0  0  0
   15.2280    2.6190   -1.1260 C   0  0  0  0  0  0  0  0  0  0  0  0
   15.0020   -0.3280   -1.7220 C   0  0  0  0  0  0  0  0  0  0  0  0
   15.0320   -4.1460   -1.2530 C   0  0  0  0  0  0  0  0  0  0  0  0
   16.2390   -4.8960   -0.7170 C   0  0  0  0  0  0  0  0  0  0  0  0
   14.8600   -5.2370   -0.2010 C   0  0  0  0  0  0  0  0  0  0  0  0
   13.2440   -2.5250   -0.7930 C   0  0  0  0  0  0  0  0  0  0  0  0
   12.3780   -2.5040   -1.6050 O   0  0  0  0  0  0  0  0  0  0  0  0
   11.6680   -2.6700    2.3490 H   0  0  0  0  0  0  0  0  0  0  0  0
   11.1900   -1.3500    1.1700 H   0  0  0  0  0  0  0  0  0  0  0  0
   10.9610   -3.1210    0.7330 H   0  0  0  0  0  0  0  0  0  0  0  0
   13.5800   -2.0660    3.3850 H   0  0  0  0  0  0  0  0  0  0  0  0
   16.1820   -2.6620    0.8620 H   0  0  0  0  0  0  0  0  0  0  0  0
   16.6050   -3.0810   -2.9620 H   0  0  0  0  0  0  0  0  0  0  0  0
   17.4190   -1.3720   -4.5780 H   0  0  0  0  0  0  0  0  0  0  0  0
   16.6900    0.9900   -4.3870 H   0  0  0  0  0  0  0  0  0  0  0  0
   14.4590    2.4390   -4.4620 H   0  0  0  0  0  0  0  0  0  0  0  0
   13.7210    5.6250   -1.8340 H   0  0  0  0  0  0  0  0  0  0  0  0
   15.6980    2.0480   -0.3210 H   0  0  0  0  0  0  0  0  0  0  0  0
   14.3350   -0.0380   -0.9110 H   0  0  0  0  0  0  0  0  0  0  0  0
   14.7020   -4.3760   -2.2820 H   0  0  0  0  0  0  0  0  0  0  0  0
   16.7710   -5.5780   -1.3780 H   0  0  0  0  0  0  0  0  0  0  0  0
   16.9440   -4.3760   -0.0650 H   0  0  0  0  0  0  0  0  0  0  0  0
   14.5980   -4.9600    0.8270 H   0  0  0  0  0  0  0  0  0  0  0  0
   14.3810   -6.1780   -0.5050 H   0  0  0  0  0  0  0  0  0  0  0  0
   15.2810   -2.3860    3.1310 H   0  0  0  0  0  0  0  0  0  0  0  0
  1  2  1  0  0  0  0
  1 26  1  0  0  0  0
  1 27  1  0  0  0  0
  1 28  1  0  0  0  0
  2  3  1  0  0  0  0
  2 24  1  0  0  0  0
  3  4  1  0  0  0  0
  3  5  2  0  0  0  0
  4 29  1  0  0  0  0
  4 43  1  0  0  0  0
  5  6  1  0  0  0  0
  5 30  1  0  0  0  0
  6  7  1  6  0  0  0
  6 21  1  0  0  0  0
  6 24  1  0  0  0  0
  7  8  2  0  0  0  0
  7 20  1  0  0  0  0
  8  9  1  0  0  0  0
  8 31  1  0  0  0  0
  9 10  2  0  0  0  0
  9 32  1  0  0  0  0
 10 11  1  0  0  0  0
 10 33  1  0  0  0  0
 11 12  1  0  0  0  0
 11 20  2  0  0  0  0
 12 13  2  0  0  0  0
 12 19  1  0  0  0  0
 13 14  1  0  0  0  0
 13 34  1  0  0  0  0
 14 15  2  0  0  0  0
 15 16  1  0  0  0  0
 15 35  1  0  0  0  0
 16 17  1  0  0  0  0
 16 19  2  0  0  0  0
 17 18  3  0  0  0  0
 19 36  1  0  0  0  0
 20 37  1  0  0  0  0
 21 22  1  0  0  0  0
 21 23  1  0  0  0  0
 21 38  1  0  0  0  0
 22 23  1  0  0  0  0
 22 39  1  0  0  0  0
 22 40  1  0  0  0  0
 23 41  1  0  0  0  0
 23 42  1  0  0  0  0
 24 25  2  0  0  0  0
M  CHG  1   5   1
M  END
$$$$
