p38a_2y
 OpenBabel02232411163D
Structure written by MMmdl.
 45 47  0  0  0  0  0  0  0  0999 V2000
   38.3660   36.5720   17.2140 C   0  0  0  0  0  0  0  0  0  0  0  0
   34.4200   34.9860   21.1630 C   0  0  0  0  0  0  0  0  0  0  0  0
   37.6170   36.0860   18.2820 C   0  0  0  0  0  0  0  0  0  0  0  0
   33.7070   39.0400   23.7080 C   0  0  0  0  0  0  0  0  0  0  0  0
   32.6340   38.9930   25.9820 C   0  0  0  0  0  0  0  0  0  0  0  0
   34.6540   37.8480   21.4080 C   0  0  0  0  0  0  0  0  0  0  0  0
   35.1900   37.1930   20.2460 C   0  0  0  0  0  0  0  0  0  0  0  0
   37.7140   36.6450   15.9760 C   0  0  0  0  0  0  0  0  0  0  0  0
   36.3980   36.2230   15.7730 C   0  0  0  0  0  0  0  0  0  0  0  0
   35.6730   35.7220   16.8590 C   0  0  0  0  0  0  0  0  0  0  0  0
   34.0320   37.0850   22.4400 C   0  0  0  0  0  0  0  0  0  0  0  0
   34.7360   39.2520   21.6100 C   0  0  0  0  0  0  0  0  0  0  0  0
   35.1010   35.8460   20.1590 C   0  0  0  0  0  0  0  0  0  0  0  0
   36.2850   35.6560   18.1140 C   0  0  0  0  0  0  0  0  0  0  0  0
   33.2280   34.9220   23.3860 C   0  0  0  0  0  0  0  0  0  0  0  0
   38.1590   36.0240   19.4910 F   0  0  0  0  0  0  0  0  0  0  0  0
   35.6010   35.0170   19.1560 O   0  0  0  0  0  0  0  0  0  0  0  0
   34.3010   39.8580   22.7230 N   0  0  0  0  0  0  0  0  0  0  0  0
   34.2790   33.7850   21.0770 O   0  0  0  0  0  0  0  0  0  0  0  0
   33.9060   35.6910   22.3060 N   0  0  0  0  0  0  0  0  0  0  0  0
   33.5550   37.6730   23.5860 N   0  0  0  0  0  0  0  0  0  0  0  0
   33.1910   39.6900   24.8060 N   0  0  0  0  0  0  0  0  0  0  0  0
   39.3980   36.9090   17.3410 H   0  0  0  0  0  0  0  0  0  0  0  0
   32.1440   38.0320   25.6660 H   0  0  0  0  0  0  0  0  0  0  0  0
   35.6610   37.8110   19.4780 H   0  0  0  0  0  0  0  0  0  0  0  0
   35.9240   36.2970   14.7920 H   0  0  0  0  0  0  0  0  0  0  0  0
   34.6320   35.4100   16.7210 H   0  0  0  0  0  0  0  0  0  0  0  0
   35.1760   39.8920   20.8280 H   0  0  0  0  0  0  0  0  0  0  0  0
   33.7830   35.0460   24.3540 H   0  0  0  0  0  0  0  0  0  0  0  0
   32.1800   35.3020   23.5250 H   0  0  0  0  0  0  0  0  0  0  0  0
   33.1910   33.8330   23.1230 H   0  0  0  0  0  0  0  0  0  0  0  0
   33.4690   40.6760   24.9830 H   0  0  0  0  0  0  0  0  0  0  0  0
   38.3710   37.1830   14.9500 F   0  0  0  0  0  0  0  0  0  0  0  0
   33.6890   38.7020   27.1030 C   0  0  0  0  0  0  0  0  0  0  0  0
   31.8400   39.6720   26.4040 H   0  0  0  0  0  0  0  0  0  0  0  0
   34.3730   39.9700   27.6150 C   0  0  0  0  0  0  0  0  0  0  0  0
   32.9230   38.2450   28.2500 O   0  0  0  0  0  0  0  0  0  0  0  0
   34.6820   37.6130   26.6970 C   0  0  0  0  0  0  0  0  0  0  0  0
   32.5240   37.3600   28.0670 H   0  0  0  0  0  0  0  0  0  0  0  0
   35.0000   39.7400   28.5060 H   0  0  0  0  0  0  0  0  0  0  0  0
   35.0230   40.4100   26.8250 H   0  0  0  0  0  0  0  0  0  0  0  0
   33.6140   40.7340   27.9010 H   0  0  0  0  0  0  0  0  0  0  0  0
   35.1420   37.1630   27.6060 H   0  0  0  0  0  0  0  0  0  0  0  0
   34.1780   36.7990   26.1260 H   0  0  0  0  0  0  0  0  0  0  0  0
   35.4890   38.0360   26.0620 H   0  0  0  0  0  0  0  0  0  0  0  0
  1  3  2  0  0  0  0
  1  8  1  0  0  0  0
  1 23  1  0  0  0  0
  2 13  1  0  0  0  0
  2 19  2  0  0  0  0
  2 20  1  0  0  0  0
  3 14  1  0  0  0  0
  3 16  1  0  0  0  0
  4 18  2  0  0  0  0
  4 21  1  0  0  0  0
  4 22  1  0  0  0  0
  5 22  1  0  0  0  0
  5 24  1  0  0  0  0
  5 34  1  0  0  0  0
  5 35  1  0  0  0  0
  6  7  1  0  0  0  0
  6 11  1  0  0  0  0
  6 12  2  0  0  0  0
  7 13  2  0  0  0  0
  7 25  1  0  0  0  0
  8  9  2  0  0  0  0
  8 33  1  0  0  0  0
  9 10  1  0  0  0  0
  9 26  1  0  0  0  0
 10 14  2  0  0  0  0
 10 27  1  0  0  0  0
 11 20  1  0  0  0  0
 11 21  2  0  0  0  0
 12 18  1  0  0  0  0
 12 28  1  0  0  0  0
 13 17  1  0  0  0  0
 14 17  1  0  0  0  0
 15 20  1  0  0  0  0
 15 29  1  0  0  0  0
 15 30  1  0  0  0  0
 15 31  1  0  0  0  0
 22 32  1  0  0  0  0
 34 36  1  0  0  0  0
 34 37  1  0  0  0  0
 34 38  1  0  0  0  0
 36 40  1  0  0  0  0
 36 41  1  0  0  0  0
 36 42  1  0  0  0  0
 37 39  1  0  0  0  0
 38 43  1  0  0  0  0
 38 44  1  0  0  0  0
 38 45  1  0  0  0  0
M  END
$$$$
