p38a_2m
 OpenBabel02232411163D
Structure written by MMmdl.
 50 54  0  0  0  0  0  0  0  0999 V2000
   38.3150   36.5720   17.1110 C   0  0  0  0  0  0  0  0  0  0  0  0
   34.5840   35.0270   21.1550 C   0  0  0  0  0  0  0  0  0  0  0  0
   37.5360   36.0970   18.1620 C   0  0  0  0  0  0  0  0  0  0  0  0
   33.8910   39.0740   23.7200 C   0  0  0  0  0  0  0  0  0  0  0  0
   34.6570   37.9090   21.3400 C   0  0  0  0  0  0  0  0  0  0  0  0
   35.0790   37.2680   20.1240 C   0  0  0  0  0  0  0  0  0  0  0  0
   37.6660   36.7350   15.8790 C   0  0  0  0  0  0  0  0  0  0  0  0
   36.3200   36.4260   15.6700 C   0  0  0  0  0  0  0  0  0  0  0  0
   35.5630   35.9340   16.7380 C   0  0  0  0  0  0  0  0  0  0  0  0
   34.2790   37.1200   22.4660 C   0  0  0  0  0  0  0  0  0  0  0  0
   34.6100   39.3200   21.5010 C   0  0  0  0  0  0  0  0  0  0  0  0
   35.0680   35.9170   20.0640 C   0  0  0  0  0  0  0  0  0  0  0  0
   36.1780   35.7590   17.9800 C   0  0  0  0  0  0  0  0  0  0  0  0
   38.0670   35.9610   19.3700 F   0  0  0  0  0  0  0  0  0  0  0  0
   35.4660   35.1120   18.9980 O   0  0  0  0  0  0  0  0  0  0  0  0
   34.2520   39.9160   22.6490 N   0  0  0  0  0  0  0  0  0  0  0  0
   34.4360   33.8300   21.0670 O   0  0  0  0  0  0  0  0  0  0  0  0
   34.2770   35.7130   22.3840 N   0  0  0  0  0  0  0  0  0  0  0  0
   33.9010   37.6940   23.6500 N   0  0  0  0  0  0  0  0  0  0  0  0
   33.4390   39.6660   24.8780 N   0  0  0  0  0  0  0  0  0  0  0  0
   39.3660   36.8400   17.2490 H   0  0  0  0  0  0  0  0  0  0  0  0
   35.4010   37.8990   19.2930 H   0  0  0  0  0  0  0  0  0  0  0  0
   35.8480   36.5780   14.6970 H   0  0  0  0  0  0  0  0  0  0  0  0
   34.5010   35.7060   16.5950 H   0  0  0  0  0  0  0  0  0  0  0  0
   34.8740   39.9780   20.6560 H   0  0  0  0  0  0  0  0  0  0  0  0
   33.5650   40.6870   25.0150 H   0  0  0  0  0  0  0  0  0  0  0  0
   38.3590   37.2500   14.8670 F   0  0  0  0  0  0  0  0  0  0  0  0
   31.8230   38.8370   28.2370 C   0  0  0  0  0  0  0  0  0  0  0  0
   32.0490   39.5740   26.9100 C   0  0  0  0  0  0  0  0  0  0  0  0
   33.1740   38.8740   26.1180 C   0  0  0  0  0  0  0  0  0  0  0  0
   34.4510   38.7610   26.9810 C   0  0  0  0  0  0  0  0  0  0  0  0
   34.1150   38.0790   28.3130 C   0  0  0  0  0  0  0  0  0  0  0  0
   33.0430   38.7560   29.0100 O   0  0  0  0  0  0  0  0  0  0  0  0
   31.4340   37.8070   28.0600 H   0  0  0  0  0  0  0  0  0  0  0  0
   31.1520   39.4120   28.9140 H   0  0  0  0  0  0  0  0  0  0  0  0
   32.3300   40.6340   27.1100 H   0  0  0  0  0  0  0  0  0  0  0  0
   31.1080   39.5640   26.3100 H   0  0  0  0  0  0  0  0  0  0  0  0
   32.8310   37.8410   25.8260 H   0  0  0  0  0  0  0  0  0  0  0  0
   35.2170   38.1510   26.4450 H   0  0  0  0  0  0  0  0  0  0  0  0
   34.8760   39.7760   27.1670 H   0  0  0  0  0  0  0  0  0  0  0  0
   33.8240   37.0140   28.1510 H   0  0  0  0  0  0  0  0  0  0  0  0
   34.9590   38.1650   29.0350 H   0  0  0  0  0  0  0  0  0  0  0  0
   33.9140   34.9390   23.5920 C   0  0  0  0  0  0  0  0  0  0  0  0
   34.7990   35.0360   24.8320 C   0  0  0  0  0  0  0  0  0  0  0  0
   34.7580   33.7510   24.0330 C   0  0  0  0  0  0  0  0  0  0  0  0
   32.8160   34.8990   23.7300 H   0  0  0  0  0  0  0  0  0  0  0  0
   35.7030   35.6530   24.8170 H   0  0  0  0  0  0  0  0  0  0  0  0
   34.2970   35.0790   25.8110 H   0  0  0  0  0  0  0  0  0  0  0  0
   35.6480   33.4470   23.4740 H   0  0  0  0  0  0  0  0  0  0  0  0
   34.2230   32.8870   24.4580 H   0  0  0  0  0  0  0  0  0  0  0  0
  1  3  2  0  0  0  0
  1  7  1  0  0  0  0
  1 21  1  0  0  0  0
  2 12  1  0  0  0  0
  2 17  2  0  0  0  0
  2 18  1  0  0  0  0
  3 13  1  0  0  0  0
  3 14  1  0  0  0  0
  4 16  2  0  0  0  0
  4 19  1  0  0  0  0
  4 20  1  0  0  0  0
  5  6  1  0  0  0  0
  5 10  1  0  0  0  0
  5 11  2  0  0  0  0
  6 12  2  0  0  0  0
  6 22  1  0  0  0  0
  7  8  2  0  0  0  0
  7 27  1  0  0  0  0
  8  9  1  0  0  0  0
  8 23  1  0  0  0  0
  9 13  2  0  0  0  0
  9 24  1  0  0  0  0
 10 18  1  0  0  0  0
 10 19  2  0  0  0  0
 11 16  1  0  0  0  0
 11 25  1  0  0  0  0
 12 15  1  0  0  0  0
 13 15  1  0  0  0  0
 18 43  1  0  0  0  0
 20 26  1  0  0  0  0
 20 30  1  0  0  0  0
 28 29  1  0  0  0  0
 28 33  1  0  0  0  0
 28 34  1  0  0  0  0
 28 35  1  0  0  0  0
 29 30  1  0  0  0  0
 29 36  1  0  0  0  0
 29 37  1  0  0  0  0
 30 31  1  0  0  0  0
 30 38  1  0  0  0  0
 31 32  1  0  0  0  0
 31 39  1  0  0  0  0
 31 40  1  0  0  0  0
 32 33  1  0  0  0  0
 32 41  1  0  0  0  0
 32 42  1  0  0  0  0
 43 44  1  0  0  0  0
 43 45  1  0  0  0  0
 43 46  1  0  0  0  0
 44 45  1  0  0  0  0
 44 47  1  0  0  0  0
 44 48  1  0  0  0  0
 45 49  1  0  0  0  0
 45 50  1  0  0  0  0
M  END
$$$$
