18660-1
 OpenBabel02232411163D
Structure written by MMmdl.
 52 53  0  0  0  0  0  0  0  0999 V2000
   23.8140   14.1430   28.1050 C   0  0  0  0  0  0  0  0  0  0  0  0
   22.5110   13.3880   28.9710 S   0  0  0  0  0  0  0  0  0  0  0  0
   22.3740   14.0400   30.2810 O   0  0  0  0  0  0  0  0  0  0  0  0
   21.2600   13.4670   28.2020 O   0  0  0  0  0  0  0  0  0  0  0  0
   23.0070   11.7060   29.1440 C   0  0  0  0  0  0  0  0  0  0  0  0
   23.3510   11.2270   30.5420 C   0  0  0  0  0  0  0  0  0  0  0  0
   22.1470   11.2600   31.3830 O   0  0  0  0  0  0  0  0  0  0  0  0
   21.5000   10.1040   31.6790 C   0  0  0  0  0  0  0  0  0  0  0  0
   21.9320    8.9380   31.1530 N   0  0  0  0  0  0  0  0  0  0  0  0
   21.1980    7.7960   31.4430 C   0  0  0  0  0  0  0  0  0  0  0  0
   20.0610    7.8210   32.2430 C   0  0  0  0  0  0  0  0  0  0  0  0
   19.6170    9.0550   32.7890 C   0  0  0  0  0  0  0  0  0  0  0  0
   18.4720    9.0850   33.5430 N   0  0  0  0  0  0  0  0  0  0  0  0
   20.3590   10.2500   32.5180 C   0  0  0  0  0  0  0  0  0  0  0  0
   20.0110   11.5340   32.9930 C   0  0  0  0  0  0  0  0  0  0  0  0
   19.7700   12.6150   33.3350 N   0  0  0  0  0  0  0  0  0  0  0  0
   21.7400    6.6550   30.8170 N   0  0  0  0  0  0  0  0  0  0  0  0
   21.1600    5.3670   30.7420 C   0  0  0  0  0  0  0  0  0  0  0  0
   20.1010    5.0900   31.2640 O   0  0  0  0  0  0  0  0  0  0  0  0
   21.9670    4.4050   29.8830 C   0  0  0  0  0  0  0  0  0  0  0  0
   23.3150    4.0960   30.4670 C   0  0  0  0  0  0  0  0  0  0  0  0
   24.4170    4.9510   30.2290 C   0  0  0  0  0  0  0  0  0  0  0  0
   24.1120    6.0270   29.3970 O   0  0  0  0  0  0  0  0  0  0  0  0
   25.0790    7.1070   29.3190 C   0  0  0  0  0  0  0  0  0  0  0  0
   25.6810    4.6920   30.7710 C   0  0  0  0  0  0  0  0  0  0  0  0
   25.8670    3.5640   31.5660 C   0  0  0  0  0  0  0  0  0  0  0  0
   24.7780    2.7000   31.7950 C   0  0  0  0  0  0  0  0  0  0  0  0
   23.5120    2.9530   31.2480 C   0  0  0  0  0  0  0  0  0  0  0  0
   25.1030    1.6340   32.6070 O   0  0  0  0  0  0  0  0  0  0  0  0
   24.1280    0.5680   32.7470 C   0  0  0  0  0  0  0  0  0  0  0  0
   24.7980   14.0660   28.6450 H   0  0  0  0  0  0  0  0  0  0  0  0
   23.9960   13.6720   27.1030 H   0  0  0  0  0  0  0  0  0  0  0  0
   23.6420   15.2330   27.9090 H   0  0  0  0  0  0  0  0  0  0  0  0
   22.2460   11.0090   28.6850 H   0  0  0  0  0  0  0  0  0  0  0  0
   23.9320   11.5170   28.5060 H   0  0  0  0  0  0  0  0  0  0  0  0
   23.7990   10.2000   30.5010 H   0  0  0  0  0  0  0  0  0  0  0  0
   24.0310   11.9300   31.0820 H   0  0  0  0  0  0  0  0  0  0  0  0
   19.4940    6.9090   32.4410 H   0  0  0  0  0  0  0  0  0  0  0  0
   18.1020    9.9590   33.9130 H   0  0  0  0  0  0  0  0  0  0  0  0
   17.9780    8.2070   33.7940 H   0  0  0  0  0  0  0  0  0  0  0  0
   22.6470    6.8180   30.3110 H   0  0  0  0  0  0  0  0  0  0  0  0
   21.3810    3.4590   29.7530 H   0  0  0  0  0  0  0  0  0  0  0  0
   22.1090    4.8780   28.8720 H   0  0  0  0  0  0  0  0  0  0  0  0
   25.9680    6.7640   28.7470 H   0  0  0  0  0  0  0  0  0  0  0  0
   24.5100    7.8840   28.7580 H   0  0  0  0  0  0  0  0  0  0  0  0
   25.3500    7.4700   30.3340 H   0  0  0  0  0  0  0  0  0  0  0  0
   26.5300    5.3530   30.5750 H   0  0  0  0  0  0  0  0  0  0  0  0
   26.8490    3.3530   31.9990 H   0  0  0  0  0  0  0  0  0  0  0  0
   22.6820    2.2690   31.4260 H   0  0  0  0  0  0  0  0  0  0  0  0
   24.6890   -0.1680   33.3720 H   0  0  0  0  0  0  0  0  0  0  0  0
   23.2270    0.9380   33.2790 H   0  0  0  0  0  0  0  0  0  0  0  0
   23.8870    0.1400   31.7500 H   0  0  0  0  0  0  0  0  0  0  0  0
  1  2  1  0  0  0  0
  1 31  1  0  0  0  0
  1 32  1  0  0  0  0
  1 33  1  0  0  0  0
  2  3  2  0  0  0  0
  2  4  2  0  0  0  0
  2  5  1  0  0  0  0
  5  6  1  0  0  0  0
  5 34  1  0  0  0  0
  5 35  1  0  0  0  0
  6  7  1  0  0  0  0
  6 36  1  0  0  0  0
  6 37  1  0  0  0  0
  7  8  1  0  0  0  0
  8 14  2  0  0  0  0
  8  9  1  0  0  0  0
  9 10  2  0  0  0  0
 10 11  1  0  0  0  0
 10 17  1  0  0  0  0
 11 12  2  0  0  0  0
 11 38  1  0  0  0  0
 12 13  1  0  0  0  0
 12 14  1  0  0  0  0
 13 39  1  0  0  0  0
 13 40  1  0  0  0  0
 14 15  1  0  0  0  0
 15 16  3  0  0  0  0
 17 18  1  0  0  0  0
 17 41  1  0  0  0  0
 18 19  2  0  0  0  0
 18 20  1  0  0  0  0
 20 21  1  0  0  0  0
 20 42  1  0  0  0  0
 20 43  1  0  0  0  0
 21 28  2  0  0  0  0
 21 22  1  0  0  0  0
 22 23  1  0  0  0  0
 22 25  2  0  0  0  0
 23 24  1  0  0  0  0
 24 44  1  0  0  0  0
 24 45  1  0  0  0  0
 24 46  1  0  0  0  0
 25 26  1  0  0  0  0
 25 47  1  0  0  0  0
 26 27  2  0  0  0  0
 26 48  1  0  0  0  0
 27 28  1  0  0  0  0
 27 29  1  0  0  0  0
 28 49  1  0  0  0  0
 29 30  1  0  0  0  0
 30 50  1  0  0  0  0
 30 51  1  0  0  0  0
 30 52  1  0  0  0  0
M  END
$$$$
