p38a_3fmk
 OpenBabel02232411163D
Structure written by MMmdl.
 46 49  0  0  1  0  0  0  0  0999 V2000
   37.3670   36.0340   18.2730 C   0  0  0  0  0  0  0  0  0  0  0  0
   38.1860   36.4600   17.2320 C   0  0  0  0  0  0  0  0  0  0  0  0
   34.7790   35.0220   23.8970 C   0  0  0  0  0  0  0  0  0  0  0  0
   36.2170   36.3720   15.7530 C   0  0  0  0  0  0  0  0  0  0  0  0
   34.6620   39.4090   21.6240 C   0  0  0  0  0  0  0  0  0  0  0  0
   34.6010   39.2130   26.4920 C   0  0  1  0  0  0  0  0  0  0  0  0
   33.1160   39.1080   26.9690 C   0  0  0  0  0  0  0  0  0  0  0  0
   34.6110   39.2180   23.9610 C   0  0  0  0  0  0  0  0  0  0  0  0
   34.7280   35.1310   21.3850 C   0  0  0  0  0  0  0  0  0  0  0  0
   34.9900   35.9930   20.2030 C   0  0  0  0  0  0  0  0  0  0  0  0
   34.9660   37.3450   20.2350 C   0  0  0  0  0  0  0  0  0  0  0  0
   35.9950   35.7650   18.0760 C   0  0  0  0  0  0  0  0  0  0  0  0
   35.4170   35.9390   16.8150 C   0  0  0  0  0  0  0  0  0  0  0  0
   34.7740   37.9990   21.5010 C   0  0  0  0  0  0  0  0  0  0  0  0
   34.7210   37.2320   22.7060 C   0  0  0  0  0  0  0  0  0  0  0  0
   34.6970   39.8870   25.1710 N   0  0  0  0  0  0  0  0  0  0  0  0
   37.5700   36.6320   15.9850 C   0  0  0  0  0  0  0  0  0  0  0  0
   38.3040   37.1060   14.9800 F   0  0  0  0  0  0  0  0  0  0  0  0
   37.8780   35.8760   19.4880 F   0  0  0  0  0  0  0  0  0  0  0  0
   35.2140   35.1870   19.0860 O   0  0  0  0  0  0  0  0  0  0  0  0
   34.5190   33.9390   21.3650 O   0  0  0  0  0  0  0  0  0  0  0  0
   34.7410   35.8340   22.6470 N   0  0  0  0  0  0  0  0  0  0  0  0
   34.6280   37.8410   23.9380 N   0  0  0  0  0  0  0  0  0  0  0  0
   34.5690   40.0270   22.8110 N   0  0  0  0  0  0  0  0  0  0  0  0
   35.3710   40.0600   27.5130 C   0  0  0  0  0  0  0  0  0  0  0  0
   32.3360   38.1330   26.1840 N   0  0  0  0  0  0  0  0  0  0  0  0
   31.4200   38.4850   25.2360 N   0  0  0  0  0  0  0  0  0  0  0  0
   30.9850   37.2950   24.7340 C   0  0  0  0  0  0  0  0  0  0  0  0
   31.6760   36.2380   25.3850 N   0  0  0  0  0  0  0  0  0  0  0  0
   32.4830   36.7700   26.2490 N   0  0  0  0  0  0  0  0  0  0  0  0
   39.2470   36.6870   17.3830 H   0  0  0  0  0  0  0  0  0  0  0  0
   35.3160   35.5780   24.7130 H   0  0  0  0  0  0  0  0  0  0  0  0
   33.7360   34.7930   24.2420 H   0  0  0  0  0  0  0  0  0  0  0  0
   35.3230   34.0610   23.7030 H   0  0  0  0  0  0  0  0  0  0  0  0
   35.7730   36.5200   14.7660 H   0  0  0  0  0  0  0  0  0  0  0  0
   34.6450   40.0470   20.7230 H   0  0  0  0  0  0  0  0  0  0  0  0
   35.0580   38.1860   26.4400 H   0  0  0  0  0  0  0  0  0  0  0  0
   33.1180   38.7830   28.0510 H   0  0  0  0  0  0  0  0  0  0  0  0
   32.6320   40.1240   26.9110 H   0  0  0  0  0  0  0  0  0  0  0  0
   35.1050   37.9640   19.3460 H   0  0  0  0  0  0  0  0  0  0  0  0
   34.3490   35.7550   16.6530 H   0  0  0  0  0  0  0  0  0  0  0  0
   34.4200   40.8930   25.2010 H   0  0  0  0  0  0  0  0  0  0  0  0
   36.4310   40.1830   27.2010 H   0  0  0  0  0  0  0  0  0  0  0  0
   34.9180   41.0740   27.6250 H   0  0  0  0  0  0  0  0  0  0  0  0
   35.3570   39.5590   28.5100 H   0  0  0  0  0  0  0  0  0  0  0  0
   30.2140   37.1470   23.9820 H   0  0  0  0  0  0  0  0  0  0  0  0
  1  2  2  0  0  0  0
  1 12  1  0  0  0  0
  1 19  1  0  0  0  0
  2 17  1  0  0  0  0
  2 31  1  0  0  0  0
  3 22  1  0  0  0  0
  3 32  1  0  0  0  0
  3 33  1  0  0  0  0
  3 34  1  0  0  0  0
  4 13  1  0  0  0  0
  4 17  2  0  0  0  0
  4 35  1  0  0  0  0
  5 14  2  0  0  0  0
  5 24  1  0  0  0  0
  5 36  1  0  0  0  0
  6  7  1  0  0  0  0
  6 16  1  0  0  0  0
  6 25  1  0  0  0  0
  6 37  1  6  0  0  0
  7 26  1  0  0  0  0
  7 38  1  0  0  0  0
  7 39  1  0  0  0  0
  8 16  1  0  0  0  0
  8 23  1  0  0  0  0
  8 24  2  0  0  0  0
  9 10  1  0  0  0  0
  9 21  2  0  0  0  0
  9 22  1  0  0  0  0
 10 11  2  0  0  0  0
 10 20  1  0  0  0  0
 11 14  1  0  0  0  0
 11 40  1  0  0  0  0
 12 13  2  0  0  0  0
 12 20  1  0  0  0  0
 13 41  1  0  0  0  0
 14 15  1  0  0  0  0
 15 22  1  0  0  0  0
 15 23  2  0  0  0  0
 16 42  1  0  0  0  0
 17 18  1  0  0  0  0
 25 43  1  0  0  0  0
 25 44  1  0  0  0  0
 25 45  1  0  0  0  0
 26 27  1  0  0  0  0
 26 30  1  0  0  0  0
 27 28  2  0  0  0  0
 28 29  1  0  0  0  0
 28 46  1  0  0  0  0
 29 30  2  0  0  0  0
M  END
$$$$
