1h1q
                    3D
 Schrodinger Suite 2022-3.
 45 48  0  0  1  0  0  0  0  0999 V2000
    1.8250   28.9160    6.8090 C   0  0  0  0  0  0  0  0  0  0  0  0
   -1.6700   31.5270    7.9080 C   0  0  0  0  0  0  0  0  0  0  0  0
   -0.3180   26.0140    8.7810 C   0  0  0  0  0  0  0  0  0  0  0  0
   -1.0760   25.3680    9.9490 C   0  0  0  0  0  0  0  0  0  0  0  0
   -0.9140   23.8370    9.8130 C   0  0  0  0  0  0  0  0  0  0  0  0
   -1.5510   23.1040   11.0020 C   0  0  0  0  0  0  0  0  0  0  0  0
   -0.9990   23.6060   12.3450 C   0  0  0  0  0  0  0  0  0  0  0  0
   -1.1780   25.1270   12.4840 C   0  0  0  0  0  0  0  0  0  0  0  0
   -0.5420   25.8760   11.3030 C   0  0  0  0  0  0  0  0  0  0  0  0
    5.3670   25.7010    5.7010 C   0  0  0  0  0  0  0  0  0  0  0  0
    5.2270   24.9380    6.8660 C   0  0  0  0  0  0  0  0  0  0  0  0
    4.3600   25.3680    7.8740 C   0  0  0  0  0  0  0  0  0  0  0  0
    3.6230   26.5470    7.7310 C   0  0  0  0  0  0  0  0  0  0  0  0
    1.0790   27.9560    7.4920 N   0  0  0  0  0  0  0  0  0  0  0  0
   -0.1230   28.2940    8.0230 C   0  0  0  0  0  0  0  0  0  0  0  0
   -0.8540   27.3950    8.6970 O   0  0  0  0  0  0  0  0  0  0  0  0
   -0.6200   29.6160    7.8780 C   0  0  0  0  0  0  0  0  0  0  0  0
   -1.7790   30.2630    8.3240 N   0  0  0  0  0  0  0  0  0  0  0  0
   -0.4350   31.7650    7.2060 N   0  0  0  0  0  0  0  0  0  0  0  0
    0.2290   30.5420    7.1490 C   0  0  0  0  0  0  0  0  0  0  0  0
    1.4330   30.2260    6.5730 N   0  0  0  0  0  0  0  0  0  0  0  0
    3.0710   28.5410    6.3250 N   0  0  0  0  0  0  0  0  0  0  0  0
    3.7460   27.2940    6.5480 C   0  0  0  0  0  0  0  0  0  0  0  0
    4.6330   26.8730    5.5330 C   0  0  0  0  0  0  0  0  0  0  0  0
   -2.3830   32.3300    8.0680 H   0  0  0  0  0  0  0  0  0  0  0  0
   -0.5640   25.5480    7.8050 H   0  0  0  0  0  0  0  0  0  0  0  0
    0.7780   26.0460    8.9700 H   0  0  0  0  0  0  0  0  0  0  0  0
   -2.1620   25.6250    9.8740 H   0  0  0  0  0  0  0  0  0  0  0  0
    0.1720   23.5780    9.7690 H   0  0  0  0  0  0  0  0  0  0  0  0
   -1.4020   23.4960    8.8730 H   0  0  0  0  0  0  0  0  0  0  0  0
   -1.3560   22.0100   10.9120 H   0  0  0  0  0  0  0  0  0  0  0  0
   -2.6510   23.2710   10.9830 H   0  0  0  0  0  0  0  0  0  0  0  0
    0.0850   23.3570   12.4180 H   0  0  0  0  0  0  0  0  0  0  0  0
   -1.5360   23.0950   13.1770 H   0  0  0  0  0  0  0  0  0  0  0  0
   -0.6890   25.4630   13.4290 H   0  0  0  0  0  0  0  0  0  0  0  0
   -2.2640   25.3670   12.5490 H   0  0  0  0  0  0  0  0  0  0  0  0
   -0.7600   26.9640   11.4000 H   0  0  0  0  0  0  0  0  0  0  0  0
    0.5640   25.7300   11.3500 H   0  0  0  0  0  0  0  0  0  0  0  0
    6.0550   25.3770    4.9150 H   0  0  0  0  0  0  0  0  0  0  0  0
    5.7940   24.0150    6.9800 H   0  0  0  0  0  0  0  0  0  0  0  0
    4.2500   24.7760    8.7870 H   0  0  0  0  0  0  0  0  0  0  0  0
    2.9610   26.8620    8.5400 H   0  0  0  0  0  0  0  0  0  0  0  0
   -0.1920   32.6310    6.7030 H   0  0  0  0  0  0  0  0  0  0  0  0
    3.5520   29.1770    5.6450 H   0  0  0  0  0  0  0  0  0  0  0  0
    4.7530   27.4580    4.6190 H   0  0  0  0  0  0  0  0  0  0  0  0
  1 14  1  0  0  0  0
  1 21  2  0  0  0  0
  1 22  1  0  0  0  0
  2 18  2  0  0  0  0
  2 19  1  0  0  0  0
  2 25  1  0  0  0  0
  3  4  1  0  0  0  0
  3 16  1  0  0  0  0
  3 26  1  0  0  0  0
  3 27  1  0  0  0  0
  4  5  1  0  0  0  0
  4  9  1  0  0  0  0
  4 28  1  0  0  0  0
  5  6  1  0  0  0  0
  5 29  1  0  0  0  0
  5 30  1  0  0  0  0
  6  7  1  0  0  0  0
  6 31  1  0  0  0  0
  6 32  1  0  0  0  0
  7  8  1  0  0  0  0
  7 33  1  0  0  0  0
  7 34  1  0  0  0  0
  8  9  1  0  0  0  0
  8 35  1  0  0  0  0
  8 36  1  0  0  0  0
  9 37  1  0  0  0  0
  9 38  1  0  0  0  0
 10 11  1  0  0  0  0
 10 24  2  0  0  0  0
 10 39  1  0  0  0  0
 11 12  2  0  0  0  0
 11 40  1  0  0  0  0
 12 13  1  0  0  0  0
 12 41  1  0  0  0  0
 13 23  2  0  0  0  0
 13 42  1  0  0  0  0
 14 15  2  0  0  0  0
 15 16  1  0  0  0  0
 15 17  1  0  0  0  0
 17 18  1  0  0  0  0
 17 20  2  0  0  0  0
 19 20  1  0  0  0  0
 19 43  1  0  0  0  0
 20 21  1  0  0  0  0
 22 23  1  0  0  0  0
 22 44  1  0  0  0  0
 23 24  1  0  0  0  0
 24 45  1  0  0  0  0
M  END
$$$$
