p38a_3flw
 OpenBabel02232411163D
Structure written by MMmdl.
 49 51  0  0  0  0  0  0  0  0999 V2000
   38.2250   36.5070   17.2090 C   0  0  0  0  0  0  0  0  0  0  0  0
   37.5960   36.6900   15.9700 C   0  0  0  0  0  0  0  0  0  0  0  0
   33.9450   39.8880   27.5920 C   0  0  0  0  0  0  0  0  0  0  0  0
   35.4610   40.1250   27.5670 C   0  0  0  0  0  0  0  0  0  0  0  0
   31.8830   39.0680   26.3240 C   0  0  0  0  0  0  0  0  0  0  0  0
   33.9510   35.0040   23.7410 C   0  0  0  0  0  0  0  0  0  0  0  0
   37.9320   35.9100   19.4670 F   0  0  0  0  0  0  0  0  0  0  0  0
   37.4150   36.0760   18.2570 C   0  0  0  0  0  0  0  0  0  0  0  0
   38.3230   37.1630   14.9600 F   0  0  0  0  0  0  0  0  0  0  0  0
   36.2390   36.4400   15.7500 C   0  0  0  0  0  0  0  0  0  0  0  0
   35.4490   35.9990   16.8170 C   0  0  0  0  0  0  0  0  0  0  0  0
   36.0420   35.8080   18.0680 C   0  0  0  0  0  0  0  0  0  0  0  0
   35.2850   35.2010   19.0790 O   0  0  0  0  0  0  0  0  0  0  0  0
   34.9680   36.0040   20.1730 C   0  0  0  0  0  0  0  0  0  0  0  0
   34.9880   37.3550   20.2370 C   0  0  0  0  0  0  0  0  0  0  0  0
   34.6480   37.9920   21.4800 C   0  0  0  0  0  0  0  0  0  0  0  0
   34.6160   39.4030   21.6380 C   0  0  0  0  0  0  0  0  0  0  0  0
   34.3520   39.9980   22.8100 N   0  0  0  0  0  0  0  0  0  0  0  0
   34.5440   35.1210   21.2920 C   0  0  0  0  0  0  0  0  0  0  0  0
   34.4080   33.9190   21.2290 O   0  0  0  0  0  0  0  0  0  0  0  0
   34.2880   35.8070   22.5320 N   0  0  0  0  0  0  0  0  0  0  0  0
   34.3320   37.2060   22.6290 C   0  0  0  0  0  0  0  0  0  0  0  0
   34.0550   37.7830   23.8460 N   0  0  0  0  0  0  0  0  0  0  0  0
   34.0970   39.1610   23.9160 C   0  0  0  0  0  0  0  0  0  0  0  0
   33.9430   39.7880   25.1350 N   0  0  0  0  0  0  0  0  0  0  0  0
   33.4300   39.1050   26.3650 C   0  0  0  0  0  0  0  0  0  0  0  0
   31.2460   38.4050   27.5520 C   0  0  0  0  0  0  0  0  0  0  0  0
   31.7600   37.0860   27.8050 O   0  0  0  0  0  0  0  0  0  0  0  0
   35.9690   40.3210   28.8980 O   0  0  0  0  0  0  0  0  0  0  0  0
   39.2860   36.7280   17.3530 H   0  0  0  0  0  0  0  0  0  0  0  0
   33.6900   39.2980   28.5070 H   0  0  0  0  0  0  0  0  0  0  0  0
   33.4170   40.8720   27.6550 H   0  0  0  0  0  0  0  0  0  0  0  0
   36.0150   39.2220   27.2240 H   0  0  0  0  0  0  0  0  0  0  0  0
   35.7060   41.0220   26.9540 H   0  0  0  0  0  0  0  0  0  0  0  0
   31.4920   40.1130   26.2460 H   0  0  0  0  0  0  0  0  0  0  0  0
   31.5610   38.5210   25.4040 H   0  0  0  0  0  0  0  0  0  0  0  0
   34.6510   35.2640   24.5810 H   0  0  0  0  0  0  0  0  0  0  0  0
   32.9000   35.2280   24.0690 H   0  0  0  0  0  0  0  0  0  0  0  0
   34.0380   33.9090   23.5170 H   0  0  0  0  0  0  0  0  0  0  0  0
   35.7850   36.5990   14.7690 H   0  0  0  0  0  0  0  0  0  0  0  0
   34.3790   35.8190   16.6660 H   0  0  0  0  0  0  0  0  0  0  0  0
   35.2600   37.9870   19.3890 H   0  0  0  0  0  0  0  0  0  0  0  0
   34.8030   40.0590   20.7710 H   0  0  0  0  0  0  0  0  0  0  0  0
   33.8380   40.8240   25.1480 H   0  0  0  0  0  0  0  0  0  0  0  0
   33.8290   38.0550   26.3930 H   0  0  0  0  0  0  0  0  0  0  0  0
   31.4860   38.9510   28.4930 H   0  0  0  0  0  0  0  0  0  0  0  0
   30.1430   38.3280   27.4090 H   0  0  0  0  0  0  0  0  0  0  0  0
   31.6660   36.5390   26.9840 H   0  0  0  0  0  0  0  0  0  0  0  0
   35.5240   41.1080   29.3060 H   0  0  0  0  0  0  0  0  0  0  0  0
  1  2  2  0  0  0  0
  1  8  1  0  0  0  0
  1 30  1  0  0  0  0
  2  9  1  0  0  0  0
  2 10  1  0  0  0  0
  3  4  1  0  0  0  0
  3 26  1  0  0  0  0
  3 31  1  0  0  0  0
  3 32  1  0  0  0  0
  4 29  1  0  0  0  0
  4 33  1  0  0  0  0
  4 34  1  0  0  0  0
  5 26  1  0  0  0  0
  5 27  1  0  0  0  0
  5 35  1  0  0  0  0
  5 36  1  0  0  0  0
  6 21  1  0  0  0  0
  6 37  1  0  0  0  0
  6 38  1  0  0  0  0
  6 39  1  0  0  0  0
  7  8  1  0  0  0  0
  8 12  2  0  0  0  0
 10 11  2  0  0  0  0
 10 40  1  0  0  0  0
 11 12  1  0  0  0  0
 11 41  1  0  0  0  0
 12 13  1  0  0  0  0
 13 14  1  0  0  0  0
 14 15  2  0  0  0  0
 14 19  1  0  0  0  0
 15 16  1  0  0  0  0
 15 42  1  0  0  0  0
 16 17  2  0  0  0  0
 16 22  1  0  0  0  0
 17 18  1  0  0  0  0
 17 43  1  0  0  0  0
 18 24  2  0  0  0  0
 19 20  2  0  0  0  0
 19 21  1  0  0  0  0
 21 22  1  0  0  0  0
 22 23  2  0  0  0  0
 23 24  1  0  0  0  0
 24 25  1  0  0  0  0
 25 26  1  0  0  0  0
 25 44  1  0  0  0  0
 26 45  1  0  0  0  0
 27 28  1  0  0  0  0
 27 46  1  0  0  0  0
 27 47  1  0  0  0  0
 28 48  1  0  0  0  0
 29 49  1  0  0  0  0
M  END
$$$$
