18635-1 flip
                    3D
 Schrodinger Suite 2022-3.
 44 45  0  0  1  0  0  0  0  0999 V2000
   25.4320    3.4710   31.6700 C   0  0  0  0  0  0  0  0  0  0  0  0
   24.0430    3.4510   31.4550 C   0  0  0  0  0  0  0  0  0  0  0  0
   23.5070    4.2090   30.3940 C   0  0  0  0  0  0  0  0  0  0  0  0
   24.3640    4.9560   29.5720 C   0  0  0  0  0  0  0  0  0  0  0  0
   25.7490    4.9700   29.7920 C   0  0  0  0  0  0  0  0  0  0  0  0
   26.2770    4.2180   30.8540 C   0  0  0  0  0  0  0  0  0  0  0  0
   22.0260    4.2380   30.1180 C   0  0  0  0  0  0  0  0  0  0  0  0
   21.2660    5.2530   30.9540 C   0  0  0  0  0  0  0  0  0  0  0  0
   21.8150    6.5570   30.9280 N   0  0  0  0  0  0  0  0  0  0  0  0
   21.2570    7.7220   31.5060 C   0  0  0  0  0  0  0  0  0  0  0  0
   20.2370    4.9950   31.5440 O   0  0  0  0  0  0  0  0  0  0  0  0
   21.9920    8.8530   31.1860 N   0  0  0  0  0  0  0  0  0  0  0  0
   21.5180   10.0470   31.6100 C   0  0  0  0  0  0  0  0  0  0  0  0
   20.3270   10.2170   32.3800 C   0  0  0  0  0  0  0  0  0  0  0  0
   19.6210    9.0250   32.7390 C   0  0  0  0  0  0  0  0  0  0  0  0
   20.1060    7.7680   32.2860 C   0  0  0  0  0  0  0  0  0  0  0  0
   18.4810    9.0770   33.4990 N   0  0  0  0  0  0  0  0  0  0  0  0
   19.9050   11.5220   32.7100 C   0  0  0  0  0  0  0  0  0  0  0  0
   22.1700   11.1850   31.2860 O   0  0  0  0  0  0  0  0  0  0  0  0
   23.4550   11.1160   30.5600 C   0  0  0  0  0  0  0  0  0  0  0  0
   23.2310   10.8870   29.0810 C   0  0  0  0  0  0  0  0  0  0  0  0
   19.6070   12.6200   32.9370 N   0  0  0  0  0  0  0  0  0  0  0  0
   25.8630    2.8880   32.4900 H   0  0  0  0  0  0  0  0  0  0  0  0
   23.9610    5.5480   28.7490 H   0  0  0  0  0  0  0  0  0  0  0  0
   19.5580    6.8580   32.5420 H   0  0  0  0  0  0  0  0  0  0  0  0
   21.5970    3.2180   30.3140 H   0  0  0  0  0  0  0  0  0  0  0  0
   21.8300    4.4880   29.0430 H   0  0  0  0  0  0  0  0  0  0  0  0
   22.7070    6.7070   30.4160 H   0  0  0  0  0  0  0  0  0  0  0  0
   17.9820    8.2120   33.7810 H   0  0  0  0  0  0  0  0  0  0  0  0
   18.0820    9.9670   33.7980 H   0  0  0  0  0  0  0  0  0  0  0  0
   24.0970   10.3300   31.0180 H   0  0  0  0  0  0  0  0  0  0  0  0
   23.8310   12.1470   30.7740 H   0  0  0  0  0  0  0  0  0  0  0  0
   24.2010   11.0150   28.5390 H   0  0  0  0  0  0  0  0  0  0  0  0
   22.8580    9.8550   28.8800 H   0  0  0  0  0  0  0  0  0  0  0  0
   22.5040   11.6180   28.6610 H   0  0  0  0  0  0  0  0  0  0  0  0
   26.6470    5.7630   28.8990 C   0  0  0  0  0  0  0  0  0  0  0  0
   27.6200    5.9950   29.3970 H   0  0  0  0  0  0  0  0  0  0  0  0
   26.8670    5.1860   27.9660 H   0  0  0  0  0  0  0  0  0  0  0  0
   26.1750    6.7330   28.6080 H   0  0  0  0  0  0  0  0  0  0  0  0
   23.1810    2.6220   32.3530 C   0  0  0  0  0  0  0  0  0  0  0  0
   23.7410    2.2900   33.2620 H   0  0  0  0  0  0  0  0  0  0  0  0
   22.2950    3.1990   32.6900 H   0  0  0  0  0  0  0  0  0  0  0  0
   22.8380    1.7020   31.8180 H   0  0  0  0  0  0  0  0  0  0  0  0
   27.3540    4.2170   31.0430 H   0  0  0  0  0  0  0  0  0  0  0  0
  1  2  1  0  0  0  0
  1  6  2  0  0  0  0
  1 23  1  0  0  0  0
  2  3  2  0  0  0  0
  2 40  1  0  0  0  0
  3  4  1  0  0  0  0
  3  7  1  0  0  0  0
  4  5  2  0  0  0  0
  4 24  1  0  0  0  0
  5  6  1  0  0  0  0
  5 36  1  0  0  0  0
  6 44  1  0  0  0  0
  7  8  1  0  0  0  0
  7 26  1  0  0  0  0
  7 27  1  0  0  0  0
  8  9  1  0  0  0  0
  8 11  2  0  0  0  0
  9 10  1  0  0  0  0
  9 28  1  0  0  0  0
 10 12  1  0  0  0  0
 10 16  2  0  0  0  0
 12 13  2  0  0  0  0
 13 14  1  0  0  0  0
 13 19  1  0  0  0  0
 14 15  2  0  0  0  0
 14 18  1  0  0  0  0
 15 16  1  0  0  0  0
 15 17  1  0  0  0  0
 16 25  1  0  0  0  0
 17 29  1  0  0  0  0
 17 30  1  0  0  0  0
 18 22  3  0  0  0  0
 19 20  1  0  0  0  0
 20 21  1  0  0  0  0
 20 31  1  0  0  0  0
 20 32  1  0  0  0  0
 21 33  1  0  0  0  0
 21 34  1  0  0  0  0
 21 35  1  0  0  0  0
 36 37  1  0  0  0  0
 36 38  1  0  0  0  0
 36 39  1  0  0  0  0
 40 41  1  0  0  0  0
 40 42  1  0  0  0  0
 40 43  1  0  0  0  0
M  END
$$$$
