p38a_2aa
 OpenBabel02232411163D
Structure written by MMmdl.
 43 45  0  0  0  0  0  0  0  0999 V2000
   38.2530   36.5200   17.1760 C   0  0  0  0  0  0  0  0  0  0  0  0
   34.6260   35.1340   21.3030 C   0  0  0  0  0  0  0  0  0  0  0  0
   37.4620   36.0730   18.2310 C   0  0  0  0  0  0  0  0  0  0  0  0
   34.3350   39.2420   23.8420 C   0  0  0  0  0  0  0  0  0  0  0  0
   33.8350   39.2090   26.3060 C   0  0  0  0  0  0  0  0  0  0  0  0
   34.7540   38.0090   21.4170 C   0  0  0  0  0  0  0  0  0  0  0  0
   35.0560   37.3380   20.1810 C   0  0  0  0  0  0  0  0  0  0  0  0
   37.6120   36.6790   15.9400 C   0  0  0  0  0  0  0  0  0  0  0  0
   36.2620   36.3860   15.7300 C   0  0  0  0  0  0  0  0  0  0  0  0
   35.4910   35.9280   16.8040 C   0  0  0  0  0  0  0  0  0  0  0  0
   34.5100   37.2500   22.6000 C   0  0  0  0  0  0  0  0  0  0  0  0
   34.7000   39.4220   21.5340 C   0  0  0  0  0  0  0  0  0  0  0  0
   35.0390   35.9860   20.1550 C   0  0  0  0  0  0  0  0  0  0  0  0
   36.0970   35.7640   18.0520 C   0  0  0  0  0  0  0  0  0  0  0  0
   34.1830   35.0770   23.7870 C   0  0  0  0  0  0  0  0  0  0  0  0
   37.9910   35.9340   19.4400 F   0  0  0  0  0  0  0  0  0  0  0  0
   35.3590   35.1590   19.0810 O   0  0  0  0  0  0  0  0  0  0  0  0
   34.4920   40.0480   22.7050 N   0  0  0  0  0  0  0  0  0  0  0  0
   34.4390   33.9390   21.2670 O   0  0  0  0  0  0  0  0  0  0  0  0
   34.4470   35.8510   22.5420 N   0  0  0  0  0  0  0  0  0  0  0  0
   34.3050   37.8640   23.8140 N   0  0  0  0  0  0  0  0  0  0  0  0
   34.2810   39.9040   25.0660 N   0  0  0  0  0  0  0  0  0  0  0  0
   39.3090   36.7730   17.3130 H   0  0  0  0  0  0  0  0  0  0  0  0
   34.3810   40.0140   27.5180 C   0  0  0  0  0  0  0  0  0  0  0  0
   35.3050   37.9470   19.3090 H   0  0  0  0  0  0  0  0  0  0  0  0
   35.7970   36.5260   14.7510 H   0  0  0  0  0  0  0  0  0  0  0  0
   34.4260   35.7170   16.6600 H   0  0  0  0  0  0  0  0  0  0  0  0
   34.8170   40.0560   20.6390 H   0  0  0  0  0  0  0  0  0  0  0  0
   34.8230   35.4600   24.6280 H   0  0  0  0  0  0  0  0  0  0  0  0
   33.1050   35.1800   24.0810 H   0  0  0  0  0  0  0  0  0  0  0  0
   34.4160   33.9910   23.6230 H   0  0  0  0  0  0  0  0  0  0  0  0
   34.0110   40.9140   25.0500 H   0  0  0  0  0  0  0  0  0  0  0  0
   38.3170   37.1710   14.9250 F   0  0  0  0  0  0  0  0  0  0  0  0
   32.2920   39.1100   26.4060 C   0  0  0  0  0  0  0  0  0  0  0  0
   31.7090   38.2630   25.4050 O   0  0  0  0  0  0  0  0  0  0  0  0
   32.4080   37.6810   25.0180 H   0  0  0  0  0  0  0  0  0  0  0  0
   32.0080   38.6790   27.3990 H   0  0  0  0  0  0  0  0  0  0  0  0
   31.8110   40.1040   26.2450 H   0  0  0  0  0  0  0  0  0  0  0  0
   35.8090   39.9470   27.5890 O   0  0  0  0  0  0  0  0  0  0  0  0
   34.0670   41.0840   27.4700 H   0  0  0  0  0  0  0  0  0  0  0  0
   34.0460   39.5450   28.4760 H   0  0  0  0  0  0  0  0  0  0  0  0
   36.1760   40.2280   26.7140 H   0  0  0  0  0  0  0  0  0  0  0  0
   34.2840   38.1750   26.3360 H   0  0  0  0  0  0  0  0  0  0  0  0
  1  3  2  0  0  0  0
  1  8  1  0  0  0  0
  1 23  1  0  0  0  0
  2 13  1  0  0  0  0
  2 19  2  0  0  0  0
  2 20  1  0  0  0  0
  3 14  1  0  0  0  0
  3 16  1  0  0  0  0
  4 18  2  0  0  0  0
  4 21  1  0  0  0  0
  4 22  1  0  0  0  0
  5 22  1  0  0  0  0
  5 24  1  0  0  0  0
  5 34  1  0  0  0  0
  5 43  1  0  0  0  0
  6  7  1  0  0  0  0
  6 11  1  0  0  0  0
  6 12  2  0  0  0  0
  7 13  2  0  0  0  0
  7 25  1  0  0  0  0
  8  9  2  0  0  0  0
  8 33  1  0  0  0  0
  9 10  1  0  0  0  0
  9 26  1  0  0  0  0
 10 14  2  0  0  0  0
 10 27  1  0  0  0  0
 11 20  1  0  0  0  0
 11 21  2  0  0  0  0
 12 18  1  0  0  0  0
 12 28  1  0  0  0  0
 13 17  1  0  0  0  0
 14 17  1  0  0  0  0
 15 20  1  0  0  0  0
 15 29  1  0  0  0  0
 15 30  1  0  0  0  0
 15 31  1  0  0  0  0
 22 32  1  0  0  0  0
 24 39  1  0  0  0  0
 24 40  1  0  0  0  0
 24 41  1  0  0  0  0
 34 35  1  0  0  0  0
 34 37  1  0  0  0  0
 34 38  1  0  0  0  0
 35 36  1  0  0  0  0
 39 42  1  0  0  0  0
M  END
$$$$
