p38a_2k
 OpenBabel02232411163D
Structure written by MMmdl.
 43 46  0  0  0  0  0  0  0  0999 V2000
   38.2830   36.5370   17.1580 C   0  0  0  0  0  0  0  0  0  0  0  0
   34.5110   35.0780   21.1870 C   0  0  0  0  0  0  0  0  0  0  0  0
   37.4860   36.0770   18.2030 C   0  0  0  0  0  0  0  0  0  0  0  0
   33.9300   39.1380   23.7450 C   0  0  0  0  0  0  0  0  0  0  0  0
   34.6030   37.9640   21.3360 C   0  0  0  0  0  0  0  0  0  0  0  0
   35.0090   37.3010   20.1260 C   0  0  0  0  0  0  0  0  0  0  0  0
   37.6500   36.7030   15.9190 C   0  0  0  0  0  0  0  0  0  0  0  0
   36.3030   36.4060   15.6950 C   0  0  0  0  0  0  0  0  0  0  0  0
   35.5280   35.9310   16.7570 C   0  0  0  0  0  0  0  0  0  0  0  0
   34.2200   37.1900   22.4680 C   0  0  0  0  0  0  0  0  0  0  0  0
   34.5790   39.3760   21.4970 C   0  0  0  0  0  0  0  0  0  0  0  0
   34.9950   35.9480   20.0810 C   0  0  0  0  0  0  0  0  0  0  0  0
   36.1250   35.7590   18.0090 C   0  0  0  0  0  0  0  0  0  0  0  0
   33.8560   35.2620   23.2210 H   0  0  0  0  0  0  0  0  0  0  0  0
   38.0030   35.9360   19.4160 F   0  0  0  0  0  0  0  0  0  0  0  0
   35.3910   35.1300   19.0230 O   0  0  0  0  0  0  0  0  0  0  0  0
   34.2620   39.9720   22.6570 N   0  0  0  0  0  0  0  0  0  0  0  0
   34.3910   33.8730   21.1660 O   0  0  0  0  0  0  0  0  0  0  0  0
   34.1650   35.7910   22.3810 N   0  0  0  0  0  0  0  0  0  0  0  0
   33.8980   37.7550   23.6730 N   0  0  0  0  0  0  0  0  0  0  0  0
   33.5590   39.7460   24.9200 N   0  0  0  0  0  0  0  0  0  0  0  0
   39.3360   36.7940   17.3060 H   0  0  0  0  0  0  0  0  0  0  0  0
   35.3300   37.9180   19.2850 H   0  0  0  0  0  0  0  0  0  0  0  0
   35.8450   36.5560   14.7150 H   0  0  0  0  0  0  0  0  0  0  0  0
   34.4650   35.7150   16.6040 H   0  0  0  0  0  0  0  0  0  0  0  0
   34.8250   40.0300   20.6450 H   0  0  0  0  0  0  0  0  0  0  0  0
   33.6810   40.7730   25.0260 H   0  0  0  0  0  0  0  0  0  0  0  0
   38.3590   37.2080   14.9130 F   0  0  0  0  0  0  0  0  0  0  0  0
   32.1990   39.0110   28.4120 C   0  0  0  0  0  0  0  0  0  0  0  0
   32.3130   39.6970   27.0440 C   0  0  0  0  0  0  0  0  0  0  0  0
   33.3880   38.9850   26.1960 C   0  0  0  0  0  0  0  0  0  0  0  0
   34.7250   38.9210   26.9660 C   0  0  0  0  0  0  0  0  0  0  0  0
   34.5020   38.2790   28.3410 C   0  0  0  0  0  0  0  0  0  0  0  0
   33.4750   38.9670   29.0920 O   0  0  0  0  0  0  0  0  0  0  0  0
   31.8060   37.9740   28.3060 H   0  0  0  0  0  0  0  0  0  0  0  0
   31.5790   39.6130   29.1150 H   0  0  0  0  0  0  0  0  0  0  0  0
   32.5890   40.7690   27.1850 H   0  0  0  0  0  0  0  0  0  0  0  0
   31.3300   39.6520   26.5180 H   0  0  0  0  0  0  0  0  0  0  0  0
   33.0380   37.9420   25.9570 H   0  0  0  0  0  0  0  0  0  0  0  0
   35.4660   38.3120   26.3940 H   0  0  0  0  0  0  0  0  0  0  0  0
   35.1400   39.9510   27.0890 H   0  0  0  0  0  0  0  0  0  0  0  0
   34.2160   37.2070   28.2380 H   0  0  0  0  0  0  0  0  0  0  0  0
   35.3960   38.4040   28.9950 H   0  0  0  0  0  0  0  0  0  0  0  0
  1  3  2  0  0  0  0
  1  7  1  0  0  0  0
  1 22  1  0  0  0  0
  2 12  1  0  0  0  0
  2 18  2  0  0  0  0
  2 19  1  0  0  0  0
  3 13  1  0  0  0  0
  3 15  1  0  0  0  0
  4 17  2  0  0  0  0
  4 20  1  0  0  0  0
  4 21  1  0  0  0  0
  5  6  1  0  0  0  0
  5 10  1  0  0  0  0
  5 11  2  0  0  0  0
  6 12  2  0  0  0  0
  6 23  1  0  0  0  0
  7  8  2  0  0  0  0
  7 28  1  0  0  0  0
  8  9  1  0  0  0  0
  8 24  1  0  0  0  0
  9 13  2  0  0  0  0
  9 25  1  0  0  0  0
 10 19  1  0  0  0  0
 10 20  2  0  0  0  0
 11 17  1  0  0  0  0
 11 26  1  0  0  0  0
 12 16  1  0  0  0  0
 13 16  1  0  0  0  0
 14 19  1  0  0  0  0
 21 27  1  0  0  0  0
 21 31  1  0  0  0  0
 29 30  1  0  0  0  0
 29 34  1  0  0  0  0
 29 35  1  0  0  0  0
 29 36  1  0  0  0  0
 30 31  1  0  0  0  0
 30 37  1  0  0  0  0
 30 38  1  0  0  0  0
 31 32  1  0  0  0  0
 31 39  1  0  0  0  0
 32 33  1  0  0  0  0
 32 40  1  0  0  0  0
 32 41  1  0  0  0  0
 33 34  1  0  0  0  0
 33 42  1  0  0  0  0
 33 43  1  0  0  0  0
M  END
$$$$
