20
 OpenBabel02232411153D
Structure written by MMmdl.
 49 52  0  0  0  0  0  0  0  0999 V2000
    1.8680   28.8200    6.8660 C   0  0  0  0  0  0  0  0  0  0  0  0
   -1.6010   31.4550    7.9810 C   0  0  0  0  0  0  0  0  0  0  0  0
   -0.1960   25.9540    8.9050 C   0  0  0  0  0  0  0  0  0  0  0  0
   -0.9490   25.2660   10.0510 C   0  0  0  0  0  0  0  0  0  0  0  0
   -0.7530   23.7430    9.8720 C   0  0  0  0  0  0  0  0  0  0  0  0
   -1.3560   22.9580   11.0450 C   0  0  0  0  0  0  0  0  0  0  0  0
   -0.7970   23.4410   12.3920 C   0  0  0  0  0  0  0  0  0  0  0  0
   -1.0330   24.9490   12.5770 C   0  0  0  0  0  0  0  0  0  0  0  0
   -0.4280   25.7530   11.4180 C   0  0  0  0  0  0  0  0  0  0  0  0
    5.4350   25.6180    5.7700 C   0  0  0  0  0  0  0  0  0  0  0  0
    5.2850   24.8470    6.9330 C   0  0  0  0  0  0  0  0  0  0  0  0
    4.4100   25.2700    7.9360 C   0  0  0  0  0  0  0  0  0  0  0  0
    3.6730   26.4500    7.8000 C   0  0  0  0  0  0  0  0  0  0  0  0
    1.1320   27.8740    7.5750 N   0  0  0  0  0  0  0  0  0  0  0  0
   -0.0680   28.2160    8.1070 C   0  0  0  0  0  0  0  0  0  0  0  0
   -0.7730   27.3200    8.8160 O   0  0  0  0  0  0  0  0  0  0  0  0
   -0.5780   29.5300    7.9300 C   0  0  0  0  0  0  0  0  0  0  0  0
   -1.7190   30.1920    8.3970 N   0  0  0  0  0  0  0  0  0  0  0  0
   -0.3850   31.6740    7.2400 N   0  0  0  0  0  0  0  0  0  0  0  0
    0.2670   30.4460    7.1790 C   0  0  0  0  0  0  0  0  0  0  0  0
    1.4650   30.1200    6.5970 N   0  0  0  0  0  0  0  0  0  0  0  0
    3.1130   28.4390    6.3860 N   0  0  0  0  0  0  0  0  0  0  0  0
    3.8020   27.2040    6.6230 C   0  0  0  0  0  0  0  0  0  0  0  0
    4.7020   26.7950    5.6140 C   0  0  0  0  0  0  0  0  0  0  0  0
   -2.2940   32.2690    8.1710 H   0  0  0  0  0  0  0  0  0  0  0  0
    0.8930   26.0250    9.1250 H   0  0  0  0  0  0  0  0  0  0  0  0
   -0.3940   25.4840    7.9210 H   0  0  0  0  0  0  0  0  0  0  0  0
   -2.0390   25.4990    9.9910 H   0  0  0  0  0  0  0  0  0  0  0  0
   -1.2420   23.4150    8.9280 H   0  0  0  0  0  0  0  0  0  0  0  0
    0.3400   23.5140    9.8130 H   0  0  0  0  0  0  0  0  0  0  0  0
   -2.4590   23.0970   11.0490 H   0  0  0  0  0  0  0  0  0  0  0  0
   -1.1300   21.8730   10.9230 H   0  0  0  0  0  0  0  0  0  0  0  0
   -1.2920   22.8850   13.2200 H   0  0  0  0  0  0  0  0  0  0  0  0
    0.2980   23.2360   12.4240 H   0  0  0  0  0  0  0  0  0  0  0  0
   -2.1270   25.1460   12.6500 H   0  0  0  0  0  0  0  0  0  0  0  0
   -0.5550   25.2780   13.5290 H   0  0  0  0  0  0  0  0  0  0  0  0
    0.6840   25.6430   11.4580 H   0  0  0  0  0  0  0  0  0  0  0  0
   -0.6820   26.8290   11.5480 H   0  0  0  0  0  0  0  0  0  0  0  0
    5.8530   23.9250    7.0600 H   0  0  0  0  0  0  0  0  0  0  0  0
    4.2960   24.6710    8.8440 H   0  0  0  0  0  0  0  0  0  0  0  0
    3.0110   26.7590    8.6100 H   0  0  0  0  0  0  0  0  0  0  0  0
   -0.1130   32.5520    6.7750 H   0  0  0  0  0  0  0  0  0  0  0  0
    3.6210   29.0980    5.7490 H   0  0  0  0  0  0  0  0  0  0  0  0
    4.8300   27.4030    4.7160 H   0  0  0  0  0  0  0  0  0  0  0  0
    6.3860   25.1690    4.6820 C   0  0  0  0  0  0  0  0  0  0  0  0
    6.5440   25.9600    3.9070 H   0  0  0  0  0  0  0  0  0  0  0  0
    7.3680   24.8570    5.1140 H   0  0  0  0  0  0  0  0  0  0  0  0
    5.8160   24.0820    3.9300 O   0  0  0  0  0  0  0  0  0  0  0  0
    5.7420   23.2830    4.5160 H   0  0  0  0  0  0  0  0  0  0  0  0
  1 14  2  0  0  0  0
  1 21  1  0  0  0  0
  1 22  1  0  0  0  0
  2 18  2  0  0  0  0
  2 19  1  0  0  0  0
  2 25  1  0  0  0  0
  3  4  1  0  0  0  0
  3 16  1  0  0  0  0
  3 26  1  0  0  0  0
  3 27  1  0  0  0  0
  4  5  1  0  0  0  0
  4  9  1  0  0  0  0
  4 28  1  0  0  0  0
  5  6  1  0  0  0  0
  5 29  1  0  0  0  0
  5 30  1  0  0  0  0
  6  7  1  0  0  0  0
  6 31  1  0  0  0  0
  6 32  1  0  0  0  0
  7  8  1  0  0  0  0
  7 33  1  0  0  0  0
  7 34  1  0  0  0  0
  8  9  1  0  0  0  0
  8 35  1  0  0  0  0
  8 36  1  0  0  0  0
  9 37  1  0  0  0  0
  9 38  1  0  0  0  0
 10 11  2  0  0  0  0
 10 24  1  0  0  0  0
 10 45  1  0  0  0  0
 11 12  1  0  0  0  0
 11 39  1  0  0  0  0
 12 13  2  0  0  0  0
 12 40  1  0  0  0  0
 13 23  1  0  0  0  0
 13 41  1  0  0  0  0
 14 15  1  0  0  0  0
 15 16  1  0  0  0  0
 15 17  2  0  0  0  0
 17 18  1  0  0  0  0
 17 20  1  0  0  0  0
 19 20  1  0  0  0  0
 19 42  1  0  0  0  0
 20 21  2  0  0  0  0
 22 23  1  0  0  0  0
 22 43  1  0  0  0  0
 23 24  2  0  0  0  0
 24 44  1  0  0  0  0
 45 46  1  0  0  0  0
 45 47  1  0  0  0  0
 45 48  1  0  0  0  0
 48 49  1  0  0  0  0
M  END
$$$$
