p38a_3flw
 OpenBabel02232411163D
Structure written by MMmdl.
 49 51  0  0  0  0  0  0  0  0999 V2000
   38.2930   36.5630   17.1160 C   0  0  0  0  0  0  0  0  0  0  0  0
   37.6600   36.7380   15.8780 C   0  0  0  0  0  0  0  0  0  0  0  0
   33.2260   39.8420   27.3920 C   0  0  0  0  0  0  0  0  0  0  0  0
   34.6300   40.3860   27.6970 C   0  0  0  0  0  0  0  0  0  0  0  0
   31.6800   38.4280   25.9470 C   0  0  0  0  0  0  0  0  0  0  0  0
   34.0980   34.9050   23.6270 C   0  0  0  0  0  0  0  0  0  0  0  0
   38.0120   35.9490   19.3710 F   0  0  0  0  0  0  0  0  0  0  0  0
   37.4950   36.0990   18.1580 C   0  0  0  0  0  0  0  0  0  0  0  0
   38.3710   37.2450   14.8740 F   0  0  0  0  0  0  0  0  0  0  0  0
   36.3130   36.4480   15.6530 C   0  0  0  0  0  0  0  0  0  0  0  0
   35.5360   35.9670   16.7120 C   0  0  0  0  0  0  0  0  0  0  0  0
   36.1340   35.7840   17.9620 C   0  0  0  0  0  0  0  0  0  0  0  0
   35.3970   35.1470   18.9670 O   0  0  0  0  0  0  0  0  0  0  0  0
   35.0370   35.9420   20.0540 C   0  0  0  0  0  0  0  0  0  0  0  0
   35.0220   37.2930   20.1190 C   0  0  0  0  0  0  0  0  0  0  0  0
   34.6380   37.9210   21.3550 C   0  0  0  0  0  0  0  0  0  0  0  0
   34.5470   39.3290   21.5140 C   0  0  0  0  0  0  0  0  0  0  0  0
   34.2040   39.9120   22.6730 N   0  0  0  0  0  0  0  0  0  0  0  0
   34.6200   35.0460   21.1640 C   0  0  0  0  0  0  0  0  0  0  0  0
   34.4910   33.8430   21.0900 O   0  0  0  0  0  0  0  0  0  0  0  0
   34.3620   35.7200   22.4080 N   0  0  0  0  0  0  0  0  0  0  0  0
   34.3390   37.1210   22.4990 C   0  0  0  0  0  0  0  0  0  0  0  0
   34.0040   37.6850   23.7060 N   0  0  0  0  0  0  0  0  0  0  0  0
   33.9360   39.0630   23.7660 C   0  0  0  0  0  0  0  0  0  0  0  0
   33.6230   39.6650   24.9640 N   0  0  0  0  0  0  0  0  0  0  0  0
   33.1330   38.9140   26.1610 C   0  0  0  0  0  0  0  0  0  0  0  0
   31.2310   37.4520   27.0450 C   0  0  0  0  0  0  0  0  0  0  0  0
   30.5530   36.3440   26.4130 O   0  0  0  0  0  0  0  0  0  0  0  0
   35.5250   39.3730   28.1830 O   0  0  0  0  0  0  0  0  0  0  0  0
   39.3470   36.8160   17.2650 H   0  0  0  0  0  0  0  0  0  0  0  0
   32.8550   39.2780   28.2840 H   0  0  0  0  0  0  0  0  0  0  0  0
   32.5500   40.7210   27.2470 H   0  0  0  0  0  0  0  0  0  0  0  0
   35.0800   40.8640   26.7960 H   0  0  0  0  0  0  0  0  0  0  0  0
   34.5770   41.1090   28.5470 H   0  0  0  0  0  0  0  0  0  0  0  0
   30.9920   39.3030   25.9080 H   0  0  0  0  0  0  0  0  0  0  0  0
   31.6070   37.8870   24.9700 H   0  0  0  0  0  0  0  0  0  0  0  0
   34.8270   35.1800   24.4360 H   0  0  0  0  0  0  0  0  0  0  0  0
   33.0570   35.1010   24.0020 H   0  0  0  0  0  0  0  0  0  0  0  0
   34.2050   33.8140   23.3930 H   0  0  0  0  0  0  0  0  0  0  0  0
   35.8540   36.6080   14.6750 H   0  0  0  0  0  0  0  0  0  0  0  0
   34.4740   35.7530   16.5560 H   0  0  0  0  0  0  0  0  0  0  0  0
   35.2950   37.9330   19.2770 H   0  0  0  0  0  0  0  0  0  0  0  0
   34.7500   39.9980   20.6600 H   0  0  0  0  0  0  0  0  0  0  0  0
   33.4930   40.6970   24.9960 H   0  0  0  0  0  0  0  0  0  0  0  0
   33.8020   38.0220   26.3080 H   0  0  0  0  0  0  0  0  0  0  0  0
   32.0990   36.9830   27.5650 H   0  0  0  0  0  0  0  0  0  0  0  0
   30.5480   37.9460   27.7700 H   0  0  0  0  0  0  0  0  0  0  0  0
   29.5790   36.3500   26.7410 H   0  0  0  0  0  0  0  0  0  0  0  0
   35.6090   38.6710   27.4980 H   0  0  0  0  0  0  0  0  0  0  0  0
  1  2  2  0  0  0  0
  1  8  1  0  0  0  0
  1 30  1  0  0  0  0
  2  9  1  0  0  0  0
  2 10  1  0  0  0  0
  3  4  1  0  0  0  0
  3 26  1  0  0  0  0
  3 31  1  0  0  0  0
  3 32  1  0  0  0  0
  4 29  1  0  0  0  0
  4 33  1  0  0  0  0
  4 34  1  0  0  0  0
  5 26  1  0  0  0  0
  5 27  1  0  0  0  0
  5 35  1  0  0  0  0
  5 36  1  0  0  0  0
  6 21  1  0  0  0  0
  6 37  1  0  0  0  0
  6 38  1  0  0  0  0
  6 39  1  0  0  0  0
  7  8  1  0  0  0  0
  8 12  2  0  0  0  0
 10 11  2  0  0  0  0
 10 40  1  0  0  0  0
 11 12  1  0  0  0  0
 11 41  1  0  0  0  0
 12 13  1  0  0  0  0
 13 14  1  0  0  0  0
 14 15  2  0  0  0  0
 14 19  1  0  0  0  0
 15 16  1  0  0  0  0
 15 42  1  0  0  0  0
 16 17  2  0  0  0  0
 16 22  1  0  0  0  0
 17 18  1  0  0  0  0
 17 43  1  0  0  0  0
 18 24  2  0  0  0  0
 19 20  2  0  0  0  0
 19 21  1  0  0  0  0
 21 22  1  0  0  0  0
 22 23  2  0  0  0  0
 23 24  1  0  0  0  0
 24 25  1  0  0  0  0
 25 26  1  0  0  0  0
 25 44  1  0  0  0  0
 26 45  1  0  0  0  0
 27 28  1  0  0  0  0
 27 46  1  0  0  0  0
 27 47  1  0  0  0  0
 28 48  1  0  0  0  0
 29 49  1  0  0  0  0
M  END
$$$$
