CAT-13d
 OpenBabel02232411143D
Structure written by MMmdl.
 43 46  0  0  1  0  0  0  0  0999 V2000
   11.7250   -2.1390    1.1630 C   0  0  0  0  0  0  0  0  0  0  0  0
   13.1040   -2.0350    0.6430 N   0  0  0  0  0  0  0  0  0  0  0  0
   14.2400   -1.9890    1.4340 C   0  0  0  0  0  0  0  0  0  0  0  0
   14.3130   -2.2220    2.7710 N   0  0  0  0  0  0  0  0  0  0  0  0
   15.3930   -1.7770    0.6350 N   0  3  0  0  0  0  0  0  0  0  0  0
   15.0590   -2.2670   -0.7670 C   0  0  1  0  0  0  0  0  0  0  0  0
   15.5870   -1.3330   -1.8310 C   0  0  0  0  0  0  0  0  0  0  0  0
   15.9560   -1.7520   -3.1130 C   0  0  0  0  0  0  0  0  0  0  0  0
   16.3390   -0.8020   -4.0680 C   0  0  0  0  0  0  0  0  0  0  0  0
   16.2780    0.5630   -3.7890 C   0  0  0  0  0  0  0  0  0  0  0  0
   15.8460    1.0050   -2.5250 C   0  0  0  0  0  0  0  0  0  0  0  0
   15.5640    2.4300   -2.2320 C   0  0  0  0  0  0  0  0  0  0  0  0
   15.0800    3.2780   -3.2430 C   0  0  0  0  0  0  0  0  0  0  0  0
   14.6180    4.5610   -2.9340 C   0  0  0  0  0  0  0  0  0  0  0  0
   14.5950    5.0070   -1.6090 C   0  0  0  0  0  0  0  0  0  0  0  0
   15.1040    4.1670   -0.6170 C   0  0  0  0  0  0  0  0  0  0  0  0
   14.9950    4.6490    1.0360 Cl  0  0  0  0  0  0  0  0  0  0  0  0
   15.6360    2.9120   -0.9120 C   0  0  0  0  0  0  0  0  0  0  0  0
   15.5540    0.0430   -1.5470 C   0  0  0  0  0  0  0  0  0  0  0  0
   15.3470   -3.7540   -0.7070 C   0  0  0  0  0  0  0  0  0  0  0  0
   14.8590   -4.7230   -1.7610 C   0  0  0  0  0  0  0  0  0  0  0  0
   16.3440   -4.5430   -1.5360 C   0  0  0  0  0  0  0  0  0  0  0  0
   13.4910   -2.1390   -0.7870 C   0  0  0  0  0  0  0  0  0  0  0  0
   12.6870   -2.1130   -1.6590 O   0  0  0  0  0  0  0  0  0  0  0  0
   11.1750   -2.9360    0.5920 H   0  0  0  0  0  0  0  0  0  0  0  0
   11.7250   -2.4210    2.2490 H   0  0  0  0  0  0  0  0  0  0  0  0
   11.2040   -1.1520    1.0360 H   0  0  0  0  0  0  0  0  0  0  0  0
   13.5560   -1.9170    3.4300 H   0  0  0  0  0  0  0  0  0  0  0  0
   16.2910   -2.1820    1.0350 H   0  0  0  0  0  0  0  0  0  0  0  0
   15.9300   -2.8020   -3.4020 H   0  0  0  0  0  0  0  0  0  0  0  0
   16.6770   -1.1390   -5.0550 H   0  0  0  0  0  0  0  0  0  0  0  0
   16.5570    1.2770   -4.5710 H   0  0  0  0  0  0  0  0  0  0  0  0
   15.0280    2.9310   -4.2790 H   0  0  0  0  0  0  0  0  0  0  0  0
   14.2370    5.2070   -3.7340 H   0  0  0  0  0  0  0  0  0  0  0  0
   14.1590    5.9750   -1.3590 H   0  0  0  0  0  0  0  0  0  0  0  0
   16.0710    2.2990   -0.1200 H   0  0  0  0  0  0  0  0  0  0  0  0
   15.2770    0.3560   -0.5410 H   0  0  0  0  0  0  0  0  0  0  0  0
   15.2660   -4.1290    0.3380 H   0  0  0  0  0  0  0  0  0  0  0  0
   14.3630   -5.6300   -1.3850 H   0  0  0  0  0  0  0  0  0  0  0  0
   14.4060   -4.3460   -2.6850 H   0  0  0  0  0  0  0  0  0  0  0  0
   16.9610   -4.0410   -2.2850 H   0  0  0  0  0  0  0  0  0  0  0  0
   16.9020   -5.3270   -1.0020 H   0  0  0  0  0  0  0  0  0  0  0  0
   15.2670   -2.1670    3.2320 H   0  0  0  0  0  0  0  0  0  0  0  0
  1  2  1  0  0  0  0
  1 25  1  0  0  0  0
  1 26  1  0  0  0  0
  1 27  1  0  0  0  0
  2  3  1  0  0  0  0
  2 23  1  0  0  0  0
  3  4  1  0  0  0  0
  3  5  2  0  0  0  0
  4 28  1  0  0  0  0
  4 43  1  0  0  0  0
  5  6  1  0  0  0  0
  5 29  1  0  0  0  0
  6  7  1  6  0  0  0
  6 20  1  0  0  0  0
  6 23  1  0  0  0  0
  7  8  2  0  0  0  0
  7 19  1  0  0  0  0
  8  9  1  0  0  0  0
  8 30  1  0  0  0  0
  9 10  2  0  0  0  0
  9 31  1  0  0  0  0
 10 11  1  0  0  0  0
 10 32  1  0  0  0  0
 11 12  1  0  0  0  0
 11 19  2  0  0  0  0
 12 13  2  0  0  0  0
 12 18  1  0  0  0  0
 13 14  1  0  0  0  0
 13 33  1  0  0  0  0
 14 15  2  0  0  0  0
 14 34  1  0  0  0  0
 15 16  1  0  0  0  0
 15 35  1  0  0  0  0
 16 18  2  0  0  0  0
 16 17  1  0  0  0  0
 18 36  1  0  0  0  0
 19 37  1  0  0  0  0
 20 21  1  0  0  0  0
 20 22  1  0  0  0  0
 20 38  1  0  0  0  0
 21 22  1  0  0  0  0
 21 39  1  0  0  0  0
 21 40  1  0  0  0  0
 22 41  1  0  0  0  0
 22 42  1  0  0  0  0
 23 24  2  0  0  0  0
M  CHG  1   5   1
M  END
$$$$
