18637-1
 OpenBabel02232411163D
Structure written by MMmdl.
 53 54  0  0  0  0  0  0  0  0999 V2000
   24.5320   10.7390   30.8170 C   0  0  0  0  0  0  0  0  0  0  0  0
   23.2220   11.1230   30.1610 C   0  0  0  0  0  0  0  0  0  0  0  0
   22.1310   11.1920   31.1540 O   0  0  0  0  0  0  0  0  0  0  0  0
   21.5260   10.0480   31.5520 C   0  0  0  0  0  0  0  0  0  0  0  0
   21.9750    8.8580   31.0940 N   0  0  0  0  0  0  0  0  0  0  0  0
   21.2630    7.7210   31.4500 C   0  0  0  0  0  0  0  0  0  0  0  0
   20.1330    7.7670   32.2620 C   0  0  0  0  0  0  0  0  0  0  0  0
   19.6750    9.0200   32.7470 C   0  0  0  0  0  0  0  0  0  0  0  0
   18.5410    9.0720   33.5190 N   0  0  0  0  0  0  0  0  0  0  0  0
   20.3890   10.2120   32.3990 C   0  0  0  0  0  0  0  0  0  0  0  0
   20.0100   11.5100   32.7990 C   0  0  0  0  0  0  0  0  0  0  0  0
   19.7490   12.6020   33.0900 N   0  0  0  0  0  0  0  0  0  0  0  0
   21.8180    6.5570   30.8780 N   0  0  0  0  0  0  0  0  0  0  0  0
   21.2110    5.2800   30.8030 C   0  0  0  0  0  0  0  0  0  0  0  0
   20.1430    5.0350   31.3210 O   0  0  0  0  0  0  0  0  0  0  0  0
   21.9950    4.2880   29.9550 C   0  0  0  0  0  0  0  0  0  0  0  0
   23.3170    3.9200   30.5560 C   0  0  0  0  0  0  0  0  0  0  0  0
   24.4590    4.7220   30.3260 C   0  0  0  0  0  0  0  0  0  0  0  0
   24.2030    5.8130   29.5070 O   0  0  0  0  0  0  0  0  0  0  0  0
   25.2600    6.7920   29.3240 C   0  0  0  0  0  0  0  0  0  0  0  0
   25.7030    4.4050   30.8730 C   0  0  0  0  0  0  0  0  0  0  0  0
   25.8460    3.2540   31.6650 C   0  0  0  0  0  0  0  0  0  0  0  0
   24.7080    2.4220   31.8830 C   0  0  0  0  0  0  0  0  0  0  0  0
   23.4670    2.7650   31.3320 C   0  0  0  0  0  0  0  0  0  0  0  0
   24.9340    1.3140   32.6770 O   0  0  0  0  0  0  0  0  0  0  0  0
   24.0120    0.2020   32.4980 C   0  0  0  0  0  0  0  0  0  0  0  0
   27.1450    2.9430   32.1640 N   0  0  0  0  0  0  0  0  0  0  0  0
   27.4530    2.4050   33.4450 C   0  0  0  0  0  0  0  0  0  0  0  0
   26.5750    2.0540   34.2080 O   0  0  0  0  0  0  0  0  0  0  0  0
   28.9260    2.3140   33.7040 C   0  0  0  0  0  0  0  0  0  0  0  0
   24.4640    9.7360   31.3010 H   0  0  0  0  0  0  0  0  0  0  0  0
   24.8380   11.4890   31.5740 H   0  0  0  0  0  0  0  0  0  0  0  0
   25.3310   10.6790   30.0350 H   0  0  0  0  0  0  0  0  0  0  0  0
   23.2200   12.1850   29.8140 H   0  0  0  0  0  0  0  0  0  0  0  0
   22.9390   10.4200   29.3460 H   0  0  0  0  0  0  0  0  0  0  0  0
   19.5820    6.8580   32.5140 H   0  0  0  0  0  0  0  0  0  0  0  0
   18.1580    9.9620   33.8390 H   0  0  0  0  0  0  0  0  0  0  0  0
   18.0370    8.2080   33.7920 H   0  0  0  0  0  0  0  0  0  0  0  0
   22.7340    6.6980   30.3810 H   0  0  0  0  0  0  0  0  0  0  0  0
   21.3720    3.3690   29.8100 H   0  0  0  0  0  0  0  0  0  0  0  0
   22.1730    4.7580   28.9480 H   0  0  0  0  0  0  0  0  0  0  0  0
   25.5940    7.1930   30.3050 H   0  0  0  0  0  0  0  0  0  0  0  0
   26.0970    6.3330   28.7550 H   0  0  0  0  0  0  0  0  0  0  0  0
   24.7400    7.5740   28.7250 H   0  0  0  0  0  0  0  0  0  0  0  0
   26.5760    5.0320   30.6700 H   0  0  0  0  0  0  0  0  0  0  0  0
   22.5980    2.1230   31.4960 H   0  0  0  0  0  0  0  0  0  0  0  0
   24.5130   -0.6100   33.0770 H   0  0  0  0  0  0  0  0  0  0  0  0
   23.0200    0.4480   32.9370 H   0  0  0  0  0  0  0  0  0  0  0  0
   23.9380   -0.0710   31.4220 H   0  0  0  0  0  0  0  0  0  0  0  0
   27.9250    3.3530   31.6150 H   0  0  0  0  0  0  0  0  0  0  0  0
   29.1400    1.8870   34.7160 H   0  0  0  0  0  0  0  0  0  0  0  0
   29.4370    1.6620   32.9470 H   0  0  0  0  0  0  0  0  0  0  0  0
   29.4170    3.3210   33.6520 H   0  0  0  0  0  0  0  0  0  0  0  0
  1  2  1  0  0  0  0
  1 31  1  0  0  0  0
  1 32  1  0  0  0  0
  1 33  1  0  0  0  0
  2  3  1  0  0  0  0
  2 34  1  0  0  0  0
  2 35  1  0  0  0  0
  3  4  1  0  0  0  0
  4 10  2  0  0  0  0
  4  5  1  0  0  0  0
  5  6  2  0  0  0  0
  6  7  1  0  0  0  0
  6 13  1  0  0  0  0
  7  8  2  0  0  0  0
  7 36  1  0  0  0  0
  8  9  1  0  0  0  0
  8 10  1  0  0  0  0
  9 37  1  0  0  0  0
  9 38  1  0  0  0  0
 10 11  1  0  0  0  0
 11 12  3  0  0  0  0
 13 14  1  0  0  0  0
 13 39  1  0  0  0  0
 14 15  2  0  0  0  0
 14 16  1  0  0  0  0
 16 17  1  0  0  0  0
 16 40  1  0  0  0  0
 16 41  1  0  0  0  0
 17 24  2  0  0  0  0
 17 18  1  0  0  0  0
 18 19  1  0  0  0  0
 18 21  2  0  0  0  0
 19 20  1  0  0  0  0
 20 42  1  0  0  0  0
 20 43  1  0  0  0  0
 20 44  1  0  0  0  0
 21 22  1  0  0  0  0
 21 45  1  0  0  0  0
 22 23  2  0  0  0  0
 22 27  1  0  0  0  0
 23 24  1  0  0  0  0
 23 25  1  0  0  0  0
 24 46  1  0  0  0  0
 25 26  1  0  0  0  0
 26 47  1  0  0  0  0
 26 48  1  0  0  0  0
 26 49  1  0  0  0  0
 27 28  1  0  0  0  0
 27 50  1  0  0  0  0
 28 29  2  0  0  0  0
 28 30  1  0  0  0  0
 30 51  1  0  0  0  0
 30 52  1  0  0  0  0
 30 53  1  0  0  0  0
M  END
$$$$
