CAT-13a
 OpenBabel02232411143D
Structure written by MMmdl.
 39 41  0  0  1  0  0  0  0  0999 V2000
   11.7540   -2.3100    1.1340 C   0  0  0  0  0  0  0  0  0  0  0  0
   13.1030   -2.4530    0.5500 N   0  0  0  0  0  0  0  0  0  0  0  0
   14.2730   -2.4020    1.3050 C   0  0  0  0  0  0  0  0  0  0  0  0
   14.3640   -2.4330    2.6630 N   0  0  0  0  0  0  0  0  0  0  0  0
   15.3880   -2.3820    0.4600 N   0  3  0  0  0  0  0  0  0  0  0  0
   14.9800   -2.7190   -0.9590 C   0  0  2  0  0  0  0  0  0  0  0  0
   15.3140   -4.1740   -1.2470 C   0  0  0  0  0  0  0  0  0  0  0  0
   15.5200   -1.6800   -1.9210 C   0  0  0  0  0  0  0  0  0  0  0  0
   16.2450   -2.0480   -3.0610 C   0  0  0  0  0  0  0  0  0  0  0  0
   16.6590   -1.0630   -3.9650 C   0  0  0  0  0  0  0  0  0  0  0  0
   16.3630    0.2810   -3.7390 C   0  0  0  0  0  0  0  0  0  0  0  0
   15.6620    0.6660   -2.5820 C   0  0  0  0  0  0  0  0  0  0  0  0
   15.3670    2.0910   -2.3100 C   0  0  0  0  0  0  0  0  0  0  0  0
   15.5440    2.6090   -1.0160 C   0  0  0  0  0  0  0  0  0  0  0  0
   15.2120    3.9360   -0.7300 C   0  0  0  0  0  0  0  0  0  0  0  0
   14.7180    4.7700   -1.7360 C   0  0  0  0  0  0  0  0  0  0  0  0
   14.5930    4.2570   -3.0310 C   0  0  0  0  0  0  0  0  0  0  0  0
   14.0420    5.2940   -4.2860 Cl  0  0  0  0  0  0  0  0  0  0  0  0
   14.8980    2.9290   -3.3350 C   0  0  0  0  0  0  0  0  0  0  0  0
   15.2390   -0.3250   -1.6830 C   0  0  0  0  0  0  0  0  0  0  0  0
   13.4200   -2.5890   -0.8890 C   0  0  0  0  0  0  0  0  0  0  0  0
   12.5730   -2.5890   -1.7220 O   0  0  0  0  0  0  0  0  0  0  0  0
   11.4770   -1.2240    1.1790 H   0  0  0  0  0  0  0  0  0  0  0  0
   11.0150   -2.8660    0.4950 H   0  0  0  0  0  0  0  0  0  0  0  0
   11.7250   -2.7490    2.1690 H   0  0  0  0  0  0  0  0  0  0  0  0
   15.3200   -2.3740    3.1090 H   0  0  0  0  0  0  0  0  0  0  0  0
   16.3070   -2.7300    0.8380 H   0  0  0  0  0  0  0  0  0  0  0  0
   16.4240   -4.3280   -1.2400 H   0  0  0  0  0  0  0  0  0  0  0  0
   14.8730   -4.8540   -0.4760 H   0  0  0  0  0  0  0  0  0  0  0  0
   14.9110   -4.4770   -2.2450 H   0  0  0  0  0  0  0  0  0  0  0  0
   16.4910   -3.0910   -3.2580 H   0  0  0  0  0  0  0  0  0  0  0  0
   17.2270   -1.3510   -4.8560 H   0  0  0  0  0  0  0  0  0  0  0  0
   16.6840    1.0310   -4.4700 H   0  0  0  0  0  0  0  0  0  0  0  0
   15.9330    1.9670   -0.2230 H   0  0  0  0  0  0  0  0  0  0  0  0
   15.3330    4.3120    0.2900 H   0  0  0  0  0  0  0  0  0  0  0  0
   14.4180    5.7960   -1.5050 H   0  0  0  0  0  0  0  0  0  0  0  0
   14.7650    2.5430   -4.3510 H   0  0  0  0  0  0  0  0  0  0  0  0
   14.6900   -0.0460   -0.7850 H   0  0  0  0  0  0  0  0  0  0  0  0
   13.6050   -2.0610    3.2840 H   0  0  0  0  0  0  0  0  0  0  0  0
  1  2  1  0  0  0  0
  1 23  1  0  0  0  0
  1 24  1  0  0  0  0
  1 25  1  0  0  0  0
  2  3  1  0  0  0  0
  2 21  1  0  0  0  0
  3  4  1  0  0  0  0
  3  5  2  0  0  0  0
  4 26  1  0  0  0  0
  4 39  1  0  0  0  0
  5  6  1  0  0  0  0
  5 27  1  0  0  0  0
  6  7  1  6  0  0  0
  6  8  1  0  0  0  0
  6 21  1  0  0  0  0
  7 28  1  0  0  0  0
  7 29  1  0  0  0  0
  7 30  1  0  0  0  0
  8  9  2  0  0  0  0
  8 20  1  0  0  0  0
  9 10  1  0  0  0  0
  9 31  1  0  0  0  0
 10 11  2  0  0  0  0
 10 32  1  0  0  0  0
 11 12  1  0  0  0  0
 11 33  1  0  0  0  0
 12 13  1  0  0  0  0
 12 20  2  0  0  0  0
 13 14  2  0  0  0  0
 13 19  1  0  0  0  0
 14 15  1  0  0  0  0
 14 34  1  0  0  0  0
 15 16  2  0  0  0  0
 15 35  1  0  0  0  0
 16 17  1  0  0  0  0
 16 36  1  0  0  0  0
 17 18  1  0  0  0  0
 17 19  2  0  0  0  0
 19 37  1  0  0  0  0
 20 38  1  0  0  0  0
 21 22  2  0  0  0  0
M  CHG  1   5   1
M  END
$$$$
