18632-1
 OpenBabel02232411163D
Structure written by MMmdl.
 42 43  0  0  0  0  0  0  0  0999 V2000
   23.8090   12.6660   30.3470 C   0  0  0  0  0  0  0  0  0  0  0  0
   23.3880   11.2110   30.4390 C   0  0  0  0  0  0  0  0  0  0  0  0
   22.1460   11.2780   31.2530 O   0  0  0  0  0  0  0  0  0  0  0  0
   21.5270   10.1280   31.5890 C   0  0  0  0  0  0  0  0  0  0  0  0
   22.0160    8.9460   31.1440 N   0  0  0  0  0  0  0  0  0  0  0  0
   21.3010    7.8000   31.4620 C   0  0  0  0  0  0  0  0  0  0  0  0
   20.1490    7.8230   32.2420 C   0  0  0  0  0  0  0  0  0  0  0  0
   19.6470    9.0680   32.7100 C   0  0  0  0  0  0  0  0  0  0  0  0
   18.4980    9.1030   33.4590 N   0  0  0  0  0  0  0  0  0  0  0  0
   20.3430   10.2720   32.3720 C   0  0  0  0  0  0  0  0  0  0  0  0
   19.9120   11.5670   32.7290 C   0  0  0  0  0  0  0  0  0  0  0  0
   19.6070   12.6580   32.9780 N   0  0  0  0  0  0  0  0  0  0  0  0
   21.8720    6.6440   30.8770 N   0  0  0  0  0  0  0  0  0  0  0  0
   21.3100    5.3430   30.8440 C   0  0  0  0  0  0  0  0  0  0  0  0
   20.2870    5.0570   31.4270 O   0  0  0  0  0  0  0  0  0  0  0  0
   22.0790    4.3790   29.9530 C   0  0  0  0  0  0  0  0  0  0  0  0
   23.4030    3.9680   30.5440 C   0  0  0  0  0  0  0  0  0  0  0  0
   24.5700    4.6470   30.1860 C   0  0  0  0  0  0  0  0  0  0  0  0
   25.7960    4.2330   30.7480 C   0  0  0  0  0  0  0  0  0  0  0  0
   26.8640    4.9630   30.2780 O   0  0  0  0  0  0  0  0  0  0  0  0
   28.1910    4.6210   30.7550 C   0  0  0  0  0  0  0  0  0  0  0  0
   25.8660    3.1790   31.6660 C   0  0  0  0  0  0  0  0  0  0  0  0
   24.6850    2.5100   32.0000 C   0  0  0  0  0  0  0  0  0  0  0  0
   23.4630    2.8870   31.4400 C   0  0  0  0  0  0  0  0  0  0  0  0
   24.0720   13.0780   31.3470 H   0  0  0  0  0  0  0  0  0  0  0  0
   24.7070   12.7380   29.6820 H   0  0  0  0  0  0  0  0  0  0  0  0
   22.9980   13.2890   29.9030 H   0  0  0  0  0  0  0  0  0  0  0  0
   24.1280   10.5840   30.9850 H   0  0  0  0  0  0  0  0  0  0  0  0
   23.1170   10.7820   29.4490 H   0  0  0  0  0  0  0  0  0  0  0  0
   19.6110    6.9050   32.4850 H   0  0  0  0  0  0  0  0  0  0  0  0
   18.0030    8.2300   33.7230 H   0  0  0  0  0  0  0  0  0  0  0  0
   18.0920    9.9860   33.7670 H   0  0  0  0  0  0  0  0  0  0  0  0
   22.7650    6.8040   30.3690 H   0  0  0  0  0  0  0  0  0  0  0  0
   21.4480    3.4630   29.7960 H   0  0  0  0  0  0  0  0  0  0  0  0
   22.2350    4.8630   28.9530 H   0  0  0  0  0  0  0  0  0  0  0  0
   24.5610    5.4760   29.4780 H   0  0  0  0  0  0  0  0  0  0  0  0
   28.4440    3.5750   30.4730 H   0  0  0  0  0  0  0  0  0  0  0  0
   28.8260    5.3500   30.1970 H   0  0  0  0  0  0  0  0  0  0  0  0
   28.2580    4.7820   31.8510 H   0  0  0  0  0  0  0  0  0  0  0  0
   26.8080    2.8610   32.1170 H   0  0  0  0  0  0  0  0  0  0  0  0
   24.7250    1.6730   32.7070 H   0  0  0  0  0  0  0  0  0  0  0  0
   22.5660    2.3240   31.6960 H   0  0  0  0  0  0  0  0  0  0  0  0
  1  2  1  0  0  0  0
  1 25  1  0  0  0  0
  1 26  1  0  0  0  0
  1 27  1  0  0  0  0
  2  3  1  0  0  0  0
  2 28  1  0  0  0  0
  2 29  1  0  0  0  0
  3  4  1  0  0  0  0
  4 10  2  0  0  0  0
  4  5  1  0  0  0  0
  5  6  2  0  0  0  0
  6  7  1  0  0  0  0
  6 13  1  0  0  0  0
  7  8  2  0  0  0  0
  7 30  1  0  0  0  0
  8  9  1  0  0  0  0
  8 10  1  0  0  0  0
  9 31  1  0  0  0  0
  9 32  1  0  0  0  0
 10 11  1  0  0  0  0
 11 12  3  0  0  0  0
 13 14  1  0  0  0  0
 13 33  1  0  0  0  0
 14 15  2  0  0  0  0
 14 16  1  0  0  0  0
 16 17  1  0  0  0  0
 16 34  1  0  0  0  0
 16 35  1  0  0  0  0
 17 24  2  0  0  0  0
 17 18  1  0  0  0  0
 18 19  2  0  0  0  0
 18 36  1  0  0  0  0
 19 20  1  0  0  0  0
 19 22  1  0  0  0  0
 20 21  1  0  0  0  0
 21 37  1  0  0  0  0
 21 38  1  0  0  0  0
 21 39  1  0  0  0  0
 22 23  2  0  0  0  0
 22 40  1  0  0  0  0
 23 24  1  0  0  0  0
 23 41  1  0  0  0  0
 24 42  1  0  0  0  0
M  END
$$$$
