20
 OpenBabel02232411153D
Structure written by MMmdl.
 49 52  0  0  0  0  0  0  0  0999 V2000
    1.9260   28.8320    6.8110 C   0  0  0  0  0  0  0  0  0  0  0  0
   -1.5630   31.4310    7.9530 C   0  0  0  0  0  0  0  0  0  0  0  0
   -0.0460   25.9690    8.9340 C   0  0  0  0  0  0  0  0  0  0  0  0
   -0.8520   25.2650   10.0320 C   0  0  0  0  0  0  0  0  0  0  0  0
   -0.6960   23.7420    9.8180 C   0  0  0  0  0  0  0  0  0  0  0  0
   -1.3740   22.9460   10.9410 C   0  0  0  0  0  0  0  0  0  0  0  0
   -0.8630   23.3740   12.3260 C   0  0  0  0  0  0  0  0  0  0  0  0
   -1.0480   24.8840   12.5420 C   0  0  0  0  0  0  0  0  0  0  0  0
   -0.3670   25.6950   11.4300 C   0  0  0  0  0  0  0  0  0  0  0  0
    5.4960   25.6440    5.6750 C   0  0  0  0  0  0  0  0  0  0  0  0
    5.3780   24.8890    6.8510 C   0  0  0  0  0  0  0  0  0  0  0  0
    4.5170   25.3170    7.8640 C   0  0  0  0  0  0  0  0  0  0  0  0
    3.7630   26.4850    7.7230 C   0  0  0  0  0  0  0  0  0  0  0  0
    1.2120   27.8820    7.5390 N   0  0  0  0  0  0  0  0  0  0  0  0
    0.0120   28.2130    8.0790 C   0  0  0  0  0  0  0  0  0  0  0  0
   -0.6690   27.3120    8.8050 O   0  0  0  0  0  0  0  0  0  0  0  0
   -0.5180   29.5180    7.8970 C   0  0  0  0  0  0  0  0  0  0  0  0
   -1.6650   30.1660    8.3670 N   0  0  0  0  0  0  0  0  0  0  0  0
   -0.3500   31.6650    7.2110 N   0  0  0  0  0  0  0  0  0  0  0  0
    0.3140   30.4440    7.1440 C   0  0  0  0  0  0  0  0  0  0  0  0
    1.5110   30.1310    6.5530 N   0  0  0  0  0  0  0  0  0  0  0  0
    3.1560   28.4510    6.2960 N   0  0  0  0  0  0  0  0  0  0  0  0
    3.8630   27.2260    6.5350 C   0  0  0  0  0  0  0  0  0  0  0  0
    4.7500   26.8140    5.5170 C   0  0  0  0  0  0  0  0  0  0  0  0
   -2.2660   32.2370    8.1420 H   0  0  0  0  0  0  0  0  0  0  0  0
    1.0220   26.0910    9.2220 H   0  0  0  0  0  0  0  0  0  0  0  0
   -0.1610   25.4880    7.9420 H   0  0  0  0  0  0  0  0  0  0  0  0
   -1.9320   25.5350    9.9400 H   0  0  0  0  0  0  0  0  0  0  0  0
   -1.1540   23.4590    8.8440 H   0  0  0  0  0  0  0  0  0  0  0  0
    0.3900   23.4790    9.7960 H   0  0  0  0  0  0  0  0  0  0  0  0
   -2.4710   23.1150   10.8980 H   0  0  0  0  0  0  0  0  0  0  0  0
   -1.1720   21.8580   10.8000 H   0  0  0  0  0  0  0  0  0  0  0  0
   -1.4190   22.8160   13.1140 H   0  0  0  0  0  0  0  0  0  0  0  0
    0.2200   23.1230   12.4080 H   0  0  0  0  0  0  0  0  0  0  0  0
   -2.1350   25.1240   12.5760 H   0  0  0  0  0  0  0  0  0  0  0  0
   -0.5980   25.1710   13.5210 H   0  0  0  0  0  0  0  0  0  0  0  0
    0.7370   25.5420   11.5100 H   0  0  0  0  0  0  0  0  0  0  0  0
   -0.5830   26.7770   11.5810 H   0  0  0  0  0  0  0  0  0  0  0  0
    5.9570   23.9730    6.9750 H   0  0  0  0  0  0  0  0  0  0  0  0
    4.4270   24.7330    8.7850 H   0  0  0  0  0  0  0  0  0  0  0  0
    3.1100   26.7980    8.5400 H   0  0  0  0  0  0  0  0  0  0  0  0
   -0.0930   32.5460    6.7430 H   0  0  0  0  0  0  0  0  0  0  0  0
    3.6520   29.1130    5.6510 H   0  0  0  0  0  0  0  0  0  0  0  0
    4.8580   27.4130    4.6110 H   0  0  0  0  0  0  0  0  0  0  0  0
    6.4270   25.1910    4.5750 C   0  0  0  0  0  0  0  0  0  0  0  0
    6.7720   26.0460    3.9420 H   0  0  0  0  0  0  0  0  0  0  0  0
    7.3100   24.6380    4.9790 H   0  0  0  0  0  0  0  0  0  0  0  0
    5.6380   24.2870    3.7600 O   0  0  0  0  0  0  0  0  0  0  0  0
    6.2130   23.9730    3.0100 H   0  0  0  0  0  0  0  0  0  0  0  0
  1 14  2  0  0  0  0
  1 21  1  0  0  0  0
  1 22  1  0  0  0  0
  2 18  2  0  0  0  0
  2 19  1  0  0  0  0
  2 25  1  0  0  0  0
  3  4  1  0  0  0  0
  3 16  1  0  0  0  0
  3 26  1  0  0  0  0
  3 27  1  0  0  0  0
  4  5  1  0  0  0  0
  4  9  1  0  0  0  0
  4 28  1  0  0  0  0
  5  6  1  0  0  0  0
  5 29  1  0  0  0  0
  5 30  1  0  0  0  0
  6  7  1  0  0  0  0
  6 31  1  0  0  0  0
  6 32  1  0  0  0  0
  7  8  1  0  0  0  0
  7 33  1  0  0  0  0
  7 34  1  0  0  0  0
  8  9  1  0  0  0  0
  8 35  1  0  0  0  0
  8 36  1  0  0  0  0
  9 37  1  0  0  0  0
  9 38  1  0  0  0  0
 10 11  2  0  0  0  0
 10 24  1  0  0  0  0
 10 45  1  0  0  0  0
 11 12  1  0  0  0  0
 11 39  1  0  0  0  0
 12 13  2  0  0  0  0
 12 40  1  0  0  0  0
 13 23  1  0  0  0  0
 13 41  1  0  0  0  0
 14 15  1  0  0  0  0
 15 16  1  0  0  0  0
 15 17  2  0  0  0  0
 17 18  1  0  0  0  0
 17 20  1  0  0  0  0
 19 20  1  0  0  0  0
 19 42  1  0  0  0  0
 20 21  2  0  0  0  0
 22 23  1  0  0  0  0
 22 43  1  0  0  0  0
 23 24  2  0  0  0  0
 24 44  1  0  0  0  0
 45 46  1  0  0  0  0
 45 47  1  0  0  0  0
 45 48  1  0  0  0  0
 48 49  1  0  0  0  0
M  END
$$$$
