p38a_2n
 OpenBabel02232411163D
Structure written by MMmdl.
 53 56  0  0  0  0  0  0  0  0999 V2000
   36.3740   36.0500   15.8030 C   0  0  0  0  0  0  0  0  0  0  0  0
   34.4180   35.0070   21.1980 C   0  0  0  0  0  0  0  0  0  0  0  0
   35.7600   35.5580   16.9510 C   0  0  0  0  0  0  0  0  0  0  0  0
   33.7220   39.1070   23.6800 C   0  0  0  0  0  0  0  0  0  0  0  0
   34.7040   37.8560   21.4260 C   0  0  0  0  0  0  0  0  0  0  0  0
   35.2930   37.1790   20.3030 C   0  0  0  0  0  0  0  0  0  0  0  0
   37.6640   36.5720   15.9610 C   0  0  0  0  0  0  0  0  0  0  0  0
   38.3450   36.5890   17.1810 C   0  0  0  0  0  0  0  0  0  0  0  0
   37.6920   36.1230   18.3280 C   0  0  0  0  0  0  0  0  0  0  0  0
   34.0440   37.1210   22.4550 C   0  0  0  0  0  0  0  0  0  0  0  0
   34.7650   39.2670   21.5800 C   0  0  0  0  0  0  0  0  0  0  0  0
   35.1850   35.8340   20.2270 C   0  0  0  0  0  0  0  0  0  0  0  0
   36.3990   35.6060   18.2070 C   0  0  0  0  0  0  0  0  0  0  0  0
   34.5510   35.0160   16.8880 F   0  0  0  0  0  0  0  0  0  0  0  0
   35.7260   34.9820   19.2660 O   0  0  0  0  0  0  0  0  0  0  0  0
   34.3000   39.9010   22.6620 N   0  0  0  0  0  0  0  0  0  0  0  0
   34.2310   33.8140   21.0950 O   0  0  0  0  0  0  0  0  0  0  0  0
   33.8620   35.7330   22.3120 N   0  0  0  0  0  0  0  0  0  0  0  0
   33.5680   37.7400   23.5890 N   0  0  0  0  0  0  0  0  0  0  0  0
   33.2680   39.8140   24.7700 N   0  0  0  0  0  0  0  0  0  0  0  0
   35.8700   36.0490   14.8340 H   0  0  0  0  0  0  0  0  0  0  0  0
   35.8190   37.7800   19.5580 H   0  0  0  0  0  0  0  0  0  0  0  0
   39.3600   36.9880   17.2530 H   0  0  0  0  0  0  0  0  0  0  0  0
   38.1880   36.1870   19.2990 H   0  0  0  0  0  0  0  0  0  0  0  0
   35.2110   39.8870   20.7850 H   0  0  0  0  0  0  0  0  0  0  0  0
   33.4950   40.8300   24.8140 H   0  0  0  0  0  0  0  0  0  0  0  0
   38.2530   37.1120   14.8960 F   0  0  0  0  0  0  0  0  0  0  0  0
   33.3420   37.9910   28.1610 C   0  0  0  0  0  0  0  0  0  0  0  0
   33.8740   38.4240   26.7900 C   0  0  0  0  0  0  0  0  0  0  0  0
   32.8020   39.2750   26.0820 C   0  0  0  0  0  0  0  0  0  0  0  0
   31.4840   38.4860   25.9700 C   0  0  0  0  0  0  0  0  0  0  0  0
   31.0530   38.0220   27.3680 C   0  0  0  0  0  0  0  0  0  0  0  0
   32.0910   37.2780   28.0460 O   0  0  0  0  0  0  0  0  0  0  0  0
   33.1970   38.8710   28.8300 H   0  0  0  0  0  0  0  0  0  0  0  0
   34.0050   37.2270   28.6310 H   0  0  0  0  0  0  0  0  0  0  0  0
   34.1110   37.5200   26.1770 H   0  0  0  0  0  0  0  0  0  0  0  0
   34.8100   39.0180   26.9230 H   0  0  0  0  0  0  0  0  0  0  0  0
   32.6110   40.2060   26.7000 H   0  0  0  0  0  0  0  0  0  0  0  0
   30.6890   39.1330   25.5280 H   0  0  0  0  0  0  0  0  0  0  0  0
   31.6230   37.5980   25.3060 H   0  0  0  0  0  0  0  0  0  0  0  0
   30.7610   38.8850   28.0060 H   0  0  0  0  0  0  0  0  0  0  0  0
   30.2350   37.2680   27.3050 H   0  0  0  0  0  0  0  0  0  0  0  0
   33.0650   34.9580   23.3200 C   0  0  0  0  0  0  0  0  0  0  0  0
   32.4250   35.6700   23.9120 H   0  0  0  0  0  0  0  0  0  0  0  0
   32.3880   34.2590   22.7540 H   0  0  0  0  0  0  0  0  0  0  0  0
   33.9710   34.1640   24.2750 C   0  0  0  0  0  0  0  0  0  0  0  0
   34.5950   33.4330   23.7080 H   0  0  0  0  0  0  0  0  0  0  0  0
   34.6520   34.8630   24.8190 H   0  0  0  0  0  0  0  0  0  0  0  0
   33.1040   33.4050   25.2940 C   0  0  0  0  0  0  0  0  0  0  0  0
   32.7000   34.0920   26.0740 H   0  0  0  0  0  0  0  0  0  0  0  0
   32.2840   32.8400   24.7930 H   0  0  0  0  0  0  0  0  0  0  0  0
   33.9060   32.4830   26.0510 O   0  0  0  0  0  0  0  0  0  0  0  0
   34.1880   31.7290   25.4450 H   0  0  0  0  0  0  0  0  0  0  0  0
  1  3  2  0  0  0  0
  1  7  1  0  0  0  0
  1 21  1  0  0  0  0
  2 12  1  0  0  0  0
  2 17  2  0  0  0  0
  2 18  1  0  0  0  0
  3 13  1  0  0  0  0
  3 14  1  0  0  0  0
  4 16  2  0  0  0  0
  4 19  1  0  0  0  0
  4 20  1  0  0  0  0
  5  6  1  0  0  0  0
  5 10  1  0  0  0  0
  5 11  2  0  0  0  0
  6 12  2  0  0  0  0
  6 22  1  0  0  0  0
  7  8  2  0  0  0  0
  7 27  1  0  0  0  0
  8  9  1  0  0  0  0
  8 23  1  0  0  0  0
  9 13  2  0  0  0  0
  9 24  1  0  0  0  0
 10 18  1  0  0  0  0
 10 19  2  0  0  0  0
 11 16  1  0  0  0  0
 11 25  1  0  0  0  0
 12 15  1  0  0  0  0
 13 15  1  0  0  0  0
 18 43  1  0  0  0  0
 20 26  1  0  0  0  0
 20 30  1  0  0  0  0
 28 29  1  0  0  0  0
 28 33  1  0  0  0  0
 28 34  1  0  0  0  0
 28 35  1  0  0  0  0
 29 30  1  0  0  0  0
 29 36  1  0  0  0  0
 29 37  1  0  0  0  0
 30 31  1  0  0  0  0
 30 38  1  0  0  0  0
 31 32  1  0  0  0  0
 31 39  1  0  0  0  0
 31 40  1  0  0  0  0
 32 33  1  0  0  0  0
 32 41  1  0  0  0  0
 32 42  1  0  0  0  0
 43 44  1  0  0  0  0
 43 45  1  0  0  0  0
 43 46  1  0  0  0  0
 46 47  1  0  0  0  0
 46 48  1  0  0  0  0
 46 49  1  0  0  0  0
 49 50  1  0  0  0  0
 49 51  1  0  0  0  0
 49 52  1  0  0  0  0
 52 53  1  0  0  0  0
M  END
$$$$
