p38a_2x
 OpenBabel02232411163D
Structure written by MMmdl.
 43 46  0  0  1  0  0  0  0  0999 V2000
   38.3010   36.5650   17.1230 C   0  0  0  0  0  0  0  0  0  0  0  0
   34.5620   35.0380   21.1380 C   0  0  0  0  0  0  0  0  0  0  0  0
   37.5040   36.0960   18.1630 C   0  0  0  0  0  0  0  0  0  0  0  0
   33.9780   39.0640   23.7540 C   0  0  0  0  0  0  0  0  0  0  0  0
   34.6430   37.9160   21.3390 C   0  0  0  0  0  0  0  0  0  0  0  0
   35.0400   37.2810   20.1110 C   0  0  0  0  0  0  0  0  0  0  0  0
   37.6710   36.7310   15.8820 C   0  0  0  0  0  0  0  0  0  0  0  0
   36.3280   36.4260   15.6520 C   0  0  0  0  0  0  0  0  0  0  0  0
   35.5510   35.9410   16.7100 C   0  0  0  0  0  0  0  0  0  0  0  0
   34.2870   37.1190   22.4680 C   0  0  0  0  0  0  0  0  0  0  0  0
   34.6090   39.3250   21.5110 C   0  0  0  0  0  0  0  0  0  0  0  0
   35.0280   35.9300   20.0430 C   0  0  0  0  0  0  0  0  0  0  0  0
   36.1460   35.7680   17.9630 C   0  0  0  0  0  0  0  0  0  0  0  0
   33.8920   34.9160   23.5700 C   0  0  0  0  0  0  0  0  0  0  0  0
   38.0180   35.9560   19.3780 F   0  0  0  0  0  0  0  0  0  0  0  0
   35.4100   35.1300   18.9680 O   0  0  0  0  0  0  0  0  0  0  0  0
   34.2940   39.9120   22.6770 N   0  0  0  0  0  0  0  0  0  0  0  0
   34.4310   33.8360   21.0610 O   0  0  0  0  0  0  0  0  0  0  0  0
   34.2550   35.7190   22.3670 N   0  0  0  0  0  0  0  0  0  0  0  0
   33.9690   37.6870   23.6760 N   0  0  0  0  0  0  0  0  0  0  0  0
   33.5850   39.6550   24.9420 N   0  0  0  0  0  0  0  0  0  0  0  0
   39.3510   36.8290   17.2760 H   0  0  0  0  0  0  0  0  0  0  0  0
   35.3480   37.9160   19.2780 H   0  0  0  0  0  0  0  0  0  0  0  0
   35.8720   36.5760   14.6720 H   0  0  0  0  0  0  0  0  0  0  0  0
   34.4910   35.7170   16.5510 H   0  0  0  0  0  0  0  0  0  0  0  0
   34.8480   39.9890   20.6630 H   0  0  0  0  0  0  0  0  0  0  0  0
   34.5800   35.1700   24.4220 H   0  0  0  0  0  0  0  0  0  0  0  0
   32.8390   35.1500   23.8830 H   0  0  0  0  0  0  0  0  0  0  0  0
   33.9760   33.8220   23.3460 H   0  0  0  0  0  0  0  0  0  0  0  0
   33.7380   40.6770   25.0660 H   0  0  0  0  0  0  0  0  0  0  0  0
   38.3800   37.2450   14.8800 F   0  0  0  0  0  0  0  0  0  0  0  0
   33.4140   39.3450   28.5350 O   0  0  0  0  0  0  0  0  0  0  0  0
   34.7990   38.9960   28.2470 C   0  0  0  0  0  0  0  0  0  0  0  0
   34.8440   38.4760   26.8040 C   0  0  0  0  0  0  0  0  0  0  0  0
   33.4710   38.8480   26.1860 C   0  0  1  0  0  0  0  0  0  0  0  0
   32.7470   39.6630   27.2910 C   0  0  0  0  0  0  0  0  0  0  0  0
   35.0460   38.2200   29.0030 H   0  0  0  0  0  0  0  0  0  0  0  0
   35.4120   39.9150   28.3790 H   0  0  0  0  0  0  0  0  0  0  0  0
   35.6870   38.9410   26.2450 H   0  0  0  0  0  0  0  0  0  0  0  0
   34.9850   37.3690   26.7770 H   0  0  0  0  0  0  0  0  0  0  0  0
   32.8890   37.9150   25.9460 H   0  0  0  0  0  0  0  0  0  0  0  0
   31.6960   39.3370   27.4420 H   0  0  0  0  0  0  0  0  0  0  0  0
   32.8230   40.7620   27.1330 H   0  0  0  0  0  0  0  0  0  0  0  0
  1  3  2  0  0  0  0
  1  7  1  0  0  0  0
  1 22  1  0  0  0  0
  2 12  1  0  0  0  0
  2 18  2  0  0  0  0
  2 19  1  0  0  0  0
  3 13  1  0  0  0  0
  3 15  1  0  0  0  0
  4 17  2  0  0  0  0
  4 20  1  0  0  0  0
  4 21  1  0  0  0  0
  5  6  1  0  0  0  0
  5 10  1  0  0  0  0
  5 11  2  0  0  0  0
  6 12  2  0  0  0  0
  6 23  1  0  0  0  0
  7  8  2  0  0  0  0
  7 31  1  0  0  0  0
  8  9  1  0  0  0  0
  8 24  1  0  0  0  0
  9 13  2  0  0  0  0
  9 25  1  0  0  0  0
 10 19  1  0  0  0  0
 10 20  2  0  0  0  0
 11 17  1  0  0  0  0
 11 26  1  0  0  0  0
 12 16  1  0  0  0  0
 13 16  1  0  0  0  0
 14 19  1  0  0  0  0
 14 27  1  0  0  0  0
 14 28  1  0  0  0  0
 14 29  1  0  0  0  0
 21 30  1  0  0  0  0
 21 35  1  0  0  0  0
 32 33  1  0  0  0  0
 32 36  1  0  0  0  0
 33 34  1  0  0  0  0
 33 37  1  0  0  0  0
 33 38  1  0  0  0  0
 34 35  1  0  0  0  0
 34 39  1  0  0  0  0
 34 40  1  0  0  0  0
 35 36  1  0  0  0  0
 35 41  1  1  0  0  0
 36 42  1  0  0  0  0
 36 43  1  0  0  0  0
M  END
$$$$
