p38a_2f
 OpenBabel02232411163D
Structure written by MMmdl.
 46 49  0  0  0  0  0  0  0  0999 V2000
   32.3010   39.7080   27.3850 C   0  0  0  0  0  0  0  0  0  0  0  0
   33.2040   40.5540   28.2900 C   0  0  0  0  0  0  0  0  0  0  0  0
   35.0990   39.1170   27.9400 C   0  0  0  0  0  0  0  0  0  0  0  0
   34.2920   38.1410   27.0830 C   0  0  0  0  0  0  0  0  0  0  0  0
   37.2110   35.9480   16.2480 C   0  0  0  0  0  0  0  0  0  0  0  0
   34.2520   39.7780   28.9090 O   0  0  0  0  0  0  0  0  0  0  0  0
   34.1310   35.1620   21.1740 C   0  0  0  0  0  0  0  0  0  0  0  0
   35.9990   35.6850   16.8900 C   0  0  0  0  0  0  0  0  0  0  0  0
   33.7820   39.0860   24.0000 C   0  0  0  0  0  0  0  0  0  0  0  0
   33.0830   38.8150   26.4010 C   0  0  0  0  0  0  0  0  0  0  0  0
   34.3410   38.0190   21.5220 C   0  0  0  0  0  0  0  0  0  0  0  0
   34.6590   37.4380   20.2540 C   0  0  0  0  0  0  0  0  0  0  0  0
   38.4000   36.2250   16.9250 C   0  0  0  0  0  0  0  0  0  0  0  0
   38.3720   36.2520   18.3230 C   0  0  0  0  0  0  0  0  0  0  0  0
   37.1920   35.9940   19.0210 C   0  0  0  0  0  0  0  0  0  0  0  0
   33.9250   37.1900   22.6070 C   0  0  0  0  0  0  0  0  0  0  0  0
   34.4360   39.4170   21.7720 C   0  0  0  0  0  0  0  0  0  0  0  0
   34.5660   36.0920   20.1090 C   0  0  0  0  0  0  0  0  0  0  0  0
   36.0240   35.7320   18.2910 C   0  0  0  0  0  0  0  0  0  0  0  0
   33.3710   34.9690   23.5830 C   0  0  0  0  0  0  0  0  0  0  0  0
   35.0740   35.5090   16.3370 H   0  0  0  0  0  0  0  0  0  0  0  0
   34.7980   35.4360   18.8950 O   0  0  0  0  0  0  0  0  0  0  0  0
   34.1760   39.9650   22.9640 N   0  0  0  0  0  0  0  0  0  0  0  0
   34.0320   33.9590   21.0810 O   0  0  0  0  0  0  0  0  0  0  0  0
   33.8050   35.8050   22.4290 N   0  0  0  0  0  0  0  0  0  0  0  0
   33.6460   37.7180   23.8440 N   0  0  0  0  0  0  0  0  0  0  0  0
   33.5010   39.6400   25.2210 N   0  0  0  0  0  0  0  0  0  0  0  0
   31.6610   39.0380   28.0120 H   0  0  0  0  0  0  0  0  0  0  0  0
   31.6270   40.3900   26.8110 H   0  0  0  0  0  0  0  0  0  0  0  0
   33.6730   41.3850   27.7160 H   0  0  0  0  0  0  0  0  0  0  0  0
   32.6380   40.9400   29.1700 H   0  0  0  0  0  0  0  0  0  0  0  0
   35.8280   38.5820   28.5910 H   0  0  0  0  0  0  0  0  0  0  0  0
   35.5960   39.8890   27.3100 H   0  0  0  0  0  0  0  0  0  0  0  0
   34.9590   37.6780   26.3150 H   0  0  0  0  0  0  0  0  0  0  0  0
   33.8960   37.3110   27.7220 H   0  0  0  0  0  0  0  0  0  0  0  0
   37.2300   35.9580   14.9180 F   0  0  0  0  0  0  0  0  0  0  0  0
   32.3880   38.0070   26.0250 H   0  0  0  0  0  0  0  0  0  0  0  0
   34.9920   38.0950   19.4450 H   0  0  0  0  0  0  0  0  0  0  0  0
   39.2880   36.4840   18.8680 H   0  0  0  0  0  0  0  0  0  0  0  0
   37.1820   36.0290   20.1080 H   0  0  0  0  0  0  0  0  0  0  0  0
   34.7360   40.0940   20.9550 H   0  0  0  0  0  0  0  0  0  0  0  0
   34.0870   35.0950   24.4400 H   0  0  0  0  0  0  0  0  0  0  0  0
   32.3510   35.2910   23.9270 H   0  0  0  0  0  0  0  0  0  0  0  0
   33.3360   33.8890   23.2880 H   0  0  0  0  0  0  0  0  0  0  0  0
   33.6210   40.6620   25.3610 H   0  0  0  0  0  0  0  0  0  0  0  0
   39.3190   36.4570   16.3960 H   0  0  0  0  0  0  0  0  0  0  0  0
  1  2  1  0  0  0  0
  1 10  1  0  0  0  0
  1 28  1  0  0  0  0
  1 29  1  0  0  0  0
  2  6  1  0  0  0  0
  2 30  1  0  0  0  0
  2 31  1  0  0  0  0
  3  4  1  0  0  0  0
  3  6  1  0  0  0  0
  3 32  1  0  0  0  0
  3 33  1  0  0  0  0
  4 10  1  0  0  0  0
  4 34  1  0  0  0  0
  4 35  1  0  0  0  0
  5  8  2  0  0  0  0
  5 13  1  0  0  0  0
  5 36  1  0  0  0  0
  7 18  1  0  0  0  0
  7 24  2  0  0  0  0
  7 25  1  0  0  0  0
  8 19  1  0  0  0  0
  8 21  1  0  0  0  0
  9 23  2  0  0  0  0
  9 26  1  0  0  0  0
  9 27  1  0  0  0  0
 10 27  1  0  0  0  0
 10 37  1  0  0  0  0
 11 12  1  0  0  0  0
 11 16  1  0  0  0  0
 11 17  2  0  0  0  0
 12 18  2  0  0  0  0
 12 38  1  0  0  0  0
 13 14  2  0  0  0  0
 13 46  1  0  0  0  0
 14 15  1  0  0  0  0
 14 39  1  0  0  0  0
 15 19  2  0  0  0  0
 15 40  1  0  0  0  0
 16 25  1  0  0  0  0
 16 26  2  0  0  0  0
 17 23  1  0  0  0  0
 17 41  1  0  0  0  0
 18 22  1  0  0  0  0
 19 22  1  0  0  0  0
 20 25  1  0  0  0  0
 20 42  1  0  0  0  0
 20 43  1  0  0  0  0
 20 44  1  0  0  0  0
 27 45  1  0  0  0  0
M  END
$$$$
