CAT-17i
 OpenBabel02232411143D
Structure written by MMmdl.
 45 48  0  0  1  0  0  0  0  0999 V2000
   15.1700    4.3800    0.9320 C   0  0  0  0  0  0  0  0  0  0  0  0
   15.1140    3.9360   -0.4910 C   0  0  0  0  0  0  0  0  0  0  0  0
   14.6590    4.7880   -1.5250 C   0  0  0  0  0  0  0  0  0  0  0  0
   14.5850    4.3980   -2.8210 N   0  0  0  0  0  0  0  0  0  0  0  0
   14.9240    3.1230   -3.1420 C   0  0  0  0  0  0  0  0  0  0  0  0
   15.3470    2.1930   -2.1710 C   0  0  0  0  0  0  0  0  0  0  0  0
   15.6200    0.7790   -2.4960 C   0  0  0  0  0  0  0  0  0  0  0  0
   16.3900    0.3960   -3.6070 C   0  0  0  0  0  0  0  0  0  0  0  0
   16.6920   -0.9510   -3.8180 C   0  0  0  0  0  0  0  0  0  0  0  0
   16.2210   -1.9370   -2.9440 C   0  0  0  0  0  0  0  0  0  0  0  0
   15.4040   -1.5690   -1.8690 C   0  0  0  0  0  0  0  0  0  0  0  0
   14.8200   -2.5960   -0.9230 C   0  0  1  0  0  0  0  0  0  0  0  0
   15.0620   -4.0510   -1.2960 C   0  0  0  0  0  0  0  0  0  0  0  0
   16.3060   -4.7750   -0.8120 C   0  0  0  0  0  0  0  0  0  0  0  0
   14.9540   -5.1550   -0.2510 C   0  0  0  0  0  0  0  0  0  0  0  0
   15.2550   -2.2760    0.4890 N   0  3  0  0  0  0  0  0  0  0  0  0
   14.1610   -2.3630    1.3610 C   0  0  0  0  0  0  0  0  0  0  0  0
   14.2980   -2.4760    2.7150 N   0  0  0  0  0  0  0  0  0  0  0  0
   12.9750   -2.3660    0.6310 N   0  0  0  0  0  0  0  0  0  0  0  0
   11.6410   -2.5340    1.2440 C   0  0  0  0  0  0  0  0  0  0  0  0
   13.2650   -2.4390   -0.8200 C   0  0  0  0  0  0  0  0  0  0  0  0
   12.4060   -2.3780   -1.6390 O   0  0  0  0  0  0  0  0  0  0  0  0
   15.1040   -0.2170   -1.6520 C   0  0  0  0  0  0  0  0  0  0  0  0
   15.4700    2.6290   -0.8410 C   0  0  0  0  0  0  0  0  0  0  0  0
   14.2910    3.9610    1.4800 H   0  0  0  0  0  0  0  0  0  0  0  0
   16.0920    3.9950    1.4360 H   0  0  0  0  0  0  0  0  0  0  0  0
   15.1500    5.4910    1.0280 H   0  0  0  0  0  0  0  0  0  0  0  0
   14.3310    5.8140   -1.3020 H   0  0  0  0  0  0  0  0  0  0  0  0
   14.8380    2.8360   -4.2030 H   0  0  0  0  0  0  0  0  0  0  0  0
   16.7630    1.1460   -4.3100 H   0  0  0  0  0  0  0  0  0  0  0  0
   17.3160   -1.2410   -4.6700 H   0  0  0  0  0  0  0  0  0  0  0  0
   16.4950   -2.9820   -3.1010 H   0  0  0  0  0  0  0  0  0  0  0  0
   14.6970   -4.2820   -2.3130 H   0  0  0  0  0  0  0  0  0  0  0  0
   16.8320   -5.4330   -1.5020 H   0  0  0  0  0  0  0  0  0  0  0  0
   17.0180   -4.2440   -0.1760 H   0  0  0  0  0  0  0  0  0  0  0  0
   14.7250   -4.8960    0.7900 H   0  0  0  0  0  0  0  0  0  0  0  0
   14.4860   -6.1030   -0.5460 H   0  0  0  0  0  0  0  0  0  0  0  0
   16.1900   -2.6040    0.8540 H   0  0  0  0  0  0  0  0  0  0  0  0
   13.5730   -2.0910    3.3720 H   0  0  0  0  0  0  0  0  0  0  0  0
   10.8800   -1.9850    0.6270 H   0  0  0  0  0  0  0  0  0  0  0  0
   11.3820   -3.6270    1.2940 H   0  0  0  0  0  0  0  0  0  0  0  0
   11.6370   -2.1130    2.2790 H   0  0  0  0  0  0  0  0  0  0  0  0
   14.4680    0.0560   -0.8120 H   0  0  0  0  0  0  0  0  0  0  0  0
   15.8310    1.9360   -0.0770 H   0  0  0  0  0  0  0  0  0  0  0  0
   15.2740   -2.3890    3.1200 H   0  0  0  0  0  0  0  0  0  0  0  0
  1  2  1  0  0  0  0
  1 25  1  0  0  0  0
  1 26  1  0  0  0  0
  1 27  1  0  0  0  0
  2  3  2  0  0  0  0
  2 24  1  0  0  0  0
  3  4  1  0  0  0  0
  3 28  1  0  0  0  0
  4  5  2  0  0  0  0
  5  6  1  0  0  0  0
  5 29  1  0  0  0  0
  6  7  1  0  0  0  0
  6 24  2  0  0  0  0
  7  8  2  0  0  0  0
  7 23  1  0  0  0  0
  8  9  1  0  0  0  0
  8 30  1  0  0  0  0
  9 10  2  0  0  0  0
  9 31  1  0  0  0  0
 10 11  1  0  0  0  0
 10 32  1  0  0  0  0
 11 23  2  0  0  0  0
 12 11  1  6  0  0  0
 12 13  1  0  0  0  0
 12 16  1  0  0  0  0
 12 21  1  0  0  0  0
 13 14  1  0  0  0  0
 13 15  1  0  0  0  0
 13 33  1  0  0  0  0
 14 15  1  0  0  0  0
 14 34  1  0  0  0  0
 14 35  1  0  0  0  0
 15 36  1  0  0  0  0
 15 37  1  0  0  0  0
 16 17  2  0  0  0  0
 16 38  1  0  0  0  0
 17 18  1  0  0  0  0
 17 19  1  0  0  0  0
 18 39  1  0  0  0  0
 18 45  1  0  0  0  0
 19 20  1  0  0  0  0
 19 21  1  0  0  0  0
 20 40  1  0  0  0  0
 20 41  1  0  0  0  0
 20 42  1  0  0  0  0
 21 22  2  0  0  0  0
 23 43  1  0  0  0  0
 24 44  1  0  0  0  0
M  CHG  1  16   1
M  END
$$$$
