CAT-17e
 OpenBabel02232411143D
Structure written by MMmdl.
 46 49  0  0  1  0  0  0  0  0999 V2000
   15.0380    4.9770    1.7240 C   0  0  0  0  0  0  0  0  0  0  0  0
   15.9130    4.0880    0.9790 O   0  0  0  0  0  0  0  0  0  0  0  0
   15.6060    3.8420   -0.3360 C   0  0  0  0  0  0  0  0  0  0  0  0
   14.9880    4.7270   -1.2500 C   0  0  0  0  0  0  0  0  0  0  0  0
   14.8130    4.3780   -2.5470 N   0  0  0  0  0  0  0  0  0  0  0  0
   15.1720    3.1380   -2.9580 C   0  0  0  0  0  0  0  0  0  0  0  0
   15.7260    2.1740   -2.0810 C   0  0  0  0  0  0  0  0  0  0  0  0
   15.8580    0.7530   -2.4620 C   0  0  0  0  0  0  0  0  0  0  0  0
   16.1690    0.3130   -3.7590 C   0  0  0  0  0  0  0  0  0  0  0  0
   16.1200   -1.0520   -4.0570 C   0  0  0  0  0  0  0  0  0  0  0  0
   15.7520   -1.9970   -3.0910 C   0  0  0  0  0  0  0  0  0  0  0  0
   15.4940   -1.5750   -1.7820 C   0  0  0  0  0  0  0  0  0  0  0  0
   15.0030   -2.4940   -0.6870 C   0  0  1  0  0  0  0  0  0  0  0  0
   15.3810   -3.9560   -0.5640 C   0  0  0  0  0  0  0  0  0  0  0  0
   14.8780   -5.0100   -1.5230 C   0  0  0  0  0  0  0  0  0  0  0  0
   16.3620   -4.7230   -1.4310 C   0  0  0  0  0  0  0  0  0  0  0  0
   15.3250   -1.9300    0.6900 N   0  3  0  0  0  0  0  0  0  0  0  0
   14.1850   -2.1360    1.5030 C   0  0  0  0  0  0  0  0  0  0  0  0
   14.2800   -2.2970    2.8490 N   0  0  0  0  0  0  0  0  0  0  0  0
   13.0480   -2.2670    0.7230 N   0  0  0  0  0  0  0  0  0  0  0  0
   11.6770   -2.3590    1.2680 C   0  0  0  0  0  0  0  0  0  0  0  0
   13.4320   -2.4360   -0.7010 C   0  0  0  0  0  0  0  0  0  0  0  0
   12.6230   -2.4900   -1.5660 O   0  0  0  0  0  0  0  0  0  0  0  0
   15.5560   -0.2060   -1.4820 C   0  0  0  0  0  0  0  0  0  0  0  0
   15.9990    2.5670   -0.7660 C   0  0  0  0  0  0  0  0  0  0  0  0
   15.2400    4.6370    2.7690 H   0  0  0  0  0  0  0  0  0  0  0  0
   15.3690    6.0200    1.5500 H   0  0  0  0  0  0  0  0  0  0  0  0
   13.9840    4.8070    1.4340 H   0  0  0  0  0  0  0  0  0  0  0  0
   14.6170    5.7150   -0.9460 H   0  0  0  0  0  0  0  0  0  0  0  0
   14.9830    2.8950   -4.0160 H   0  0  0  0  0  0  0  0  0  0  0  0
   16.4450    1.0220   -4.5450 H   0  0  0  0  0  0  0  0  0  0  0  0
   16.3640   -1.3880   -5.0710 H   0  0  0  0  0  0  0  0  0  0  0  0
   15.6530   -3.0430   -3.3810 H   0  0  0  0  0  0  0  0  0  0  0  0
   15.3990   -4.2730    0.5010 H   0  0  0  0  0  0  0  0  0  0  0  0
   14.4770   -5.9300   -1.0720 H   0  0  0  0  0  0  0  0  0  0  0  0
   14.3330   -4.7080   -2.4240 H   0  0  0  0  0  0  0  0  0  0  0  0
   16.8760   -4.2250   -2.2570 H   0  0  0  0  0  0  0  0  0  0  0  0
   17.0140   -5.4390   -0.9080 H   0  0  0  0  0  0  0  0  0  0  0  0
   16.2400   -2.2760    1.1030 H   0  0  0  0  0  0  0  0  0  0  0  0
   13.5240   -1.9700    3.4980 H   0  0  0  0  0  0  0  0  0  0  0  0
   11.0990   -3.1280    0.6860 H   0  0  0  0  0  0  0  0  0  0  0  0
   11.6960   -2.6740    2.3450 H   0  0  0  0  0  0  0  0  0  0  0  0
   11.1720   -1.3600    1.1810 H   0  0  0  0  0  0  0  0  0  0  0  0
   15.3520    0.1120   -0.4600 H   0  0  0  0  0  0  0  0  0  0  0  0
   16.4610    1.8910   -0.0470 H   0  0  0  0  0  0  0  0  0  0  0  0
   15.2370   -2.1850    3.2940 H   0  0  0  0  0  0  0  0  0  0  0  0
  1  2  1  0  0  0  0
  1 26  1  0  0  0  0
  1 27  1  0  0  0  0
  1 28  1  0  0  0  0
  2  3  1  0  0  0  0
  3  4  2  0  0  0  0
  3 25  1  0  0  0  0
  4  5  1  0  0  0  0
  4 29  1  0  0  0  0
  5  6  2  0  0  0  0
  6  7  1  0  0  0  0
  6 30  1  0  0  0  0
  7  8  1  0  0  0  0
  7 25  2  0  0  0  0
  8  9  2  0  0  0  0
  8 24  1  0  0  0  0
  9 10  1  0  0  0  0
  9 31  1  0  0  0  0
 10 11  2  0  0  0  0
 10 32  1  0  0  0  0
 11 12  1  0  0  0  0
 11 33  1  0  0  0  0
 12 24  2  0  0  0  0
 13 12  1  6  0  0  0
 13 14  1  0  0  0  0
 13 17  1  0  0  0  0
 13 22  1  0  0  0  0
 14 15  1  0  0  0  0
 14 16  1  0  0  0  0
 14 34  1  0  0  0  0
 15 16  1  0  0  0  0
 15 35  1  0  0  0  0
 15 36  1  0  0  0  0
 16 37  1  0  0  0  0
 16 38  1  0  0  0  0
 17 18  2  0  0  0  0
 17 39  1  0  0  0  0
 18 19  1  0  0  0  0
 18 20  1  0  0  0  0
 19 40  1  0  0  0  0
 19 46  1  0  0  0  0
 20 21  1  0  0  0  0
 20 22  1  0  0  0  0
 21 41  1  0  0  0  0
 21 42  1  0  0  0  0
 21 43  1  0  0  0  0
 22 23  2  0  0  0  0
 24 44  1  0  0  0  0
 25 45  1  0  0  0  0
M  CHG  1  17   1
M  END
$$$$
