20669
                    3D
 Schrodinger Suite 2022-3.
 42 44  0  0  1  0  0  0  0  0999 V2000
   43.7580   13.9330   16.6910 S   0  0  0  0  0  0  0  0  0  0  0  0
   43.5780   15.2580   15.5600 C   0  0  0  0  0  0  0  0  0  0  0  0
   42.6600   14.9050   14.6060 C   0  0  0  0  0  0  0  0  0  0  0  0
   42.0720   13.5980   14.8220 C   0  0  0  0  0  0  0  0  0  0  0  0
   42.5550   12.9320   15.9150 C   0  0  0  0  0  0  0  0  0  0  0  0
   44.3730   16.5470   15.7790 C   0  0  0  0  0  0  0  0  0  0  0  0
   45.2300   16.4850   16.6890 O   0  0  0  0  0  0  0  0  0  0  0  0
   44.1310   17.5370   15.0880 O   0  5  0  0  0  0  0  0  0  0  0  0
   42.2110   11.6170   16.4200 C   0  0  0  0  0  0  0  0  0  0  0  0
   40.8820   11.1790   16.3780 C   0  0  0  0  0  0  0  0  0  0  0  0
   40.5380    9.8620   16.7610 C   0  0  0  0  0  0  0  0  0  0  0  0
   41.5280    9.0070   17.2640 C   0  0  0  0  0  0  0  0  0  0  0  0
   42.8490    9.4710   17.3540 C   0  0  0  0  0  0  0  0  0  0  0  0
   43.2020   10.7450   16.9290 C   0  0  0  0  0  0  0  0  0  0  0  0
   40.7550   12.8760   13.6500 Br  0  0  0  0  0  0  0  0  0  0  0  0
   42.4330   15.6520   13.4950 O   0  0  0  0  0  0  0  0  0  0  0  0
   41.0780   16.1940   13.3910 C   0  0  0  0  0  0  0  0  0  0  0  0
   41.3320   17.6070   12.7800 C   0  0  0  0  0  0  0  0  0  0  0  0
   40.3230   18.3450   12.7420 O   0  5  0  0  0  0  0  0  0  0  0  0
   42.4600   17.8880   12.3610 O   0  0  0  0  0  0  0  0  0  0  0  0
   39.1420    9.5400   16.6960 N   0  0  0  0  0  0  0  0  0  0  0  0
   38.6880    8.1300   16.7980 C   0  0  0  0  0  0  0  0  0  0  0  0
   40.0800   11.8520   16.0600 H   0  0  0  0  0  0  0  0  0  0  0  0
   41.3060    7.9960   17.5970 H   0  0  0  0  0  0  0  0  0  0  0  0
   43.6050    8.7960   17.7630 H   0  0  0  0  0  0  0  0  0  0  0  0
   44.2470   11.0530   16.9890 H   0  0  0  0  0  0  0  0  0  0  0  0
   40.5710   16.2410   14.3770 H   0  0  0  0  0  0  0  0  0  0  0  0
   40.5160   15.5370   12.6970 H   0  0  0  0  0  0  0  0  0  0  0  0
   38.6590   10.0100   15.9100 H   0  0  0  0  0  0  0  0  0  0  0  0
   39.3420    7.5360   17.4910 H   0  0  0  0  0  0  0  0  0  0  0  0
   37.6660    8.1640   17.2820 H   0  0  0  0  0  0  0  0  0  0  0  0
   38.3740    6.0530   13.0170 C   0  0  0  0  0  0  0  0  0  0  0  0
   39.6310    6.2960   13.5790 C   0  0  0  0  0  0  0  0  0  0  0  0
   39.7410    6.9720   14.7970 C   0  0  0  0  0  0  0  0  0  0  0  0
   38.5900    7.4190   15.4630 C   0  0  0  0  0  0  0  0  0  0  0  0
   37.3310    7.1850   14.8880 C   0  0  0  0  0  0  0  0  0  0  0  0
   37.2240    6.5010   13.6730 C   0  0  0  0  0  0  0  0  0  0  0  0
   38.2900    5.5010   12.0800 H   0  0  0  0  0  0  0  0  0  0  0  0
   40.5320    5.9380   13.0720 H   0  0  0  0  0  0  0  0  0  0  0  0
   40.7330    7.1320   15.2330 H   0  0  0  0  0  0  0  0  0  0  0  0
   36.4220    7.5230   15.3920 H   0  0  0  0  0  0  0  0  0  0  0  0
   36.2380    6.3040   13.2460 H   0  0  0  0  0  0  0  0  0  0  0  0
  1  2  1  0  0  0  0
  1  5  1  0  0  0  0
  2  3  2  0  0  0  0
  2  6  1  0  0  0  0
  3  4  1  0  0  0  0
  3 16  1  0  0  0  0
  4  5  2  0  0  0  0
  4 15  1  0  0  0  0
  5  9  1  0  0  0  0
  6  7  2  0  0  0  0
  6  8  1  0  0  0  0
  9 10  1  0  0  0  0
  9 14  2  0  0  0  0
 10 11  2  0  0  0  0
 10 23  1  0  0  0  0
 11 12  1  0  0  0  0
 11 21  1  0  0  0  0
 12 13  2  0  0  0  0
 12 24  1  0  0  0  0
 13 14  1  0  0  0  0
 13 25  1  0  0  0  0
 14 26  1  0  0  0  0
 16 17  1  0  0  0  0
 17 18  1  0  0  0  0
 17 27  1  0  0  0  0
 17 28  1  0  0  0  0
 18 19  1  0  0  0  0
 18 20  2  0  0  0  0
 21 22  1  0  0  0  0
 21 29  1  0  0  0  0
 22 30  1  0  0  0  0
 22 31  1  0  0  0  0
 22 35  1  0  0  0  0
 32 33  2  0  0  0  0
 32 37  1  0  0  0  0
 32 38  1  0  0  0  0
 33 34  1  0  0  0  0
 33 39  1  0  0  0  0
 34 35  2  0  0  0  0
 34 40  1  0  0  0  0
 35 36  1  0  0  0  0
 36 37  2  0  0  0  0
 36 41  1  0  0  0  0
 37 42  1  0  0  0  0
M  CHG  2   8  -1  19  -1
M  END
$$$$
