CAT-17b
 OpenBabel02232411143D
Structure written by MMmdl.
 47 50  0  0  1  0  0  0  0  0999 V2000
   15.0170    4.9430    1.8240 C   0  0  0  0  0  0  0  0  0  0  0  0
   15.7120    3.9010    1.0930 O   0  0  0  0  0  0  0  0  0  0  0  0
   15.4220    3.7350   -0.2430 C   0  0  0  0  0  0  0  0  0  0  0  0
   14.9000    4.7100   -1.1050 C   0  0  0  0  0  0  0  0  0  0  0  0
   14.7040    4.3690   -2.4470 C   0  0  0  0  0  0  0  0  0  0  0  0
   14.9870    3.0810   -2.9170 C   0  0  0  0  0  0  0  0  0  0  0  0
   15.4740    2.1060   -2.0330 C   0  0  0  0  0  0  0  0  0  0  0  0
   15.6730    0.6950   -2.4430 C   0  0  0  0  0  0  0  0  0  0  0  0
   16.3600    0.3260   -3.6100 C   0  0  0  0  0  0  0  0  0  0  0  0
   16.5910   -1.0250   -3.8850 C   0  0  0  0  0  0  0  0  0  0  0  0
   16.1340   -2.0260   -3.0210 C   0  0  0  0  0  0  0  0  0  0  0  0
   15.4020   -1.6670   -1.8830 C   0  0  0  0  0  0  0  0  0  0  0  0
   14.8300   -2.6930   -0.9270 C   0  0  1  0  0  0  0  0  0  0  0  0
   15.0620   -4.1530   -1.2760 C   0  0  0  0  0  0  0  0  0  0  0  0
   16.2740   -4.8970   -0.7430 C   0  0  0  0  0  0  0  0  0  0  0  0
   14.8970   -5.2400   -0.2190 C   0  0  0  0  0  0  0  0  0  0  0  0
   15.2760   -2.3540    0.4780 N   0  3  0  0  0  0  0  0  0  0  0  0
   14.1840   -2.3770    1.3540 C   0  0  0  0  0  0  0  0  0  0  0  0
   14.3180   -2.4390    2.7100 N   0  0  0  0  0  0  0  0  0  0  0  0
   12.9960   -2.4070    0.6290 N   0  0  0  0  0  0  0  0  0  0  0  0
   11.6620   -2.2730    1.2470 C   0  0  0  0  0  0  0  0  0  0  0  0
   13.2760   -2.5180   -0.8190 C   0  0  0  0  0  0  0  0  0  0  0  0
   12.4130   -2.4750   -1.6350 O   0  0  0  0  0  0  0  0  0  0  0  0
   15.1680   -0.3120   -1.6070 C   0  0  0  0  0  0  0  0  0  0  0  0
   15.7210    2.4400   -0.6970 C   0  0  0  0  0  0  0  0  0  0  0  0
   15.1490    4.5830    2.8730 H   0  0  0  0  0  0  0  0  0  0  0  0
   15.5220    5.9120    1.6440 H   0  0  0  0  0  0  0  0  0  0  0  0
   13.9520    4.9680    1.5290 H   0  0  0  0  0  0  0  0  0  0  0  0
   14.6370    5.7060   -0.7540 H   0  0  0  0  0  0  0  0  0  0  0  0
   14.3030    5.1190   -3.1400 H   0  0  0  0  0  0  0  0  0  0  0  0
   14.8080    2.8350   -3.9670 H   0  0  0  0  0  0  0  0  0  0  0  0
   16.7200    1.0880   -4.3080 H   0  0  0  0  0  0  0  0  0  0  0  0
   17.1490   -1.3050   -4.7850 H   0  0  0  0  0  0  0  0  0  0  0  0
   16.3510   -3.0740   -3.2340 H   0  0  0  0  0  0  0  0  0  0  0  0
   14.7220   -4.3920   -2.3000 H   0  0  0  0  0  0  0  0  0  0  0  0
   16.8040   -5.5800   -1.4040 H   0  0  0  0  0  0  0  0  0  0  0  0
   16.9790   -4.3750   -0.0930 H   0  0  0  0  0  0  0  0  0  0  0  0
   14.6400   -4.9610    0.8110 H   0  0  0  0  0  0  0  0  0  0  0  0
   14.4180   -6.1830   -0.5150 H   0  0  0  0  0  0  0  0  0  0  0  0
   16.2080   -2.6840    0.8510 H   0  0  0  0  0  0  0  0  0  0  0  0
   13.5970   -2.0270    3.3520 H   0  0  0  0  0  0  0  0  0  0  0  0
   11.3730   -1.1900    1.2760 H   0  0  0  0  0  0  0  0  0  0  0  0
   11.6690   -2.6890    2.2900 H   0  0  0  0  0  0  0  0  0  0  0  0
   10.9140   -2.8520    0.6400 H   0  0  0  0  0  0  0  0  0  0  0  0
   14.5940   -0.0430   -0.7230 H   0  0  0  0  0  0  0  0  0  0  0  0
   16.1090    1.7030    0.0050 H   0  0  0  0  0  0  0  0  0  0  0  0
   15.2920   -2.3700    3.1190 H   0  0  0  0  0  0  0  0  0  0  0  0
  1  2  1  0  0  0  0
  1 26  1  0  0  0  0
  1 27  1  0  0  0  0
  1 28  1  0  0  0  0
  2  3  1  0  0  0  0
  3  4  2  0  0  0  0
  3 25  1  0  0  0  0
  4  5  1  0  0  0  0
  4 29  1  0  0  0  0
  5  6  2  0  0  0  0
  5 30  1  0  0  0  0
  6  7  1  0  0  0  0
  6 31  1  0  0  0  0
  7  8  1  0  0  0  0
  7 25  2  0  0  0  0
  8  9  2  0  0  0  0
  8 24  1  0  0  0  0
  9 10  1  0  0  0  0
  9 32  1  0  0  0  0
 10 11  2  0  0  0  0
 10 33  1  0  0  0  0
 11 12  1  0  0  0  0
 11 34  1  0  0  0  0
 12 24  2  0  0  0  0
 13 12  1  6  0  0  0
 13 14  1  0  0  0  0
 13 17  1  0  0  0  0
 13 22  1  0  0  0  0
 14 15  1  0  0  0  0
 14 16  1  0  0  0  0
 14 35  1  0  0  0  0
 15 16  1  0  0  0  0
 15 36  1  0  0  0  0
 15 37  1  0  0  0  0
 16 38  1  0  0  0  0
 16 39  1  0  0  0  0
 17 18  2  0  0  0  0
 17 40  1  0  0  0  0
 18 19  1  0  0  0  0
 18 20  1  0  0  0  0
 19 41  1  0  0  0  0
 19 47  1  0  0  0  0
 20 21  1  0  0  0  0
 20 22  1  0  0  0  0
 21 42  1  0  0  0  0
 21 43  1  0  0  0  0
 21 44  1  0  0  0  0
 22 23  2  0  0  0  0
 24 45  1  0  0  0  0
 25 46  1  0  0  0  0
M  CHG  1  17   1
M  END
$$$$
