26.pdb
 OpenBabel02232411163D

 43 46  0  0  0  0  0  0  0  0999 V2000
    3.6090  -50.0570    6.0570 O   0  5  0  0  0  0  0  0  0  0  0  0
    2.9350  -49.1220    6.5120 C   0  0  0  0  0  0  0  0  0  0  0  0
    3.3230  -48.1020    7.0910 O   0  0  0  0  0  0  0  0  0  0  0  0
    1.4020  -49.3130    6.3540 C   0  0  0  0  0  0  0  0  0  0  0  0
    1.0280  -50.6320    6.7010 O   0  0  0  0  0  0  0  0  0  0  0  0
   -0.3560  -50.7020    6.5170 C   0  0  0  0  0  0  0  0  0  0  0  0
   -1.1690  -51.8040    6.7610 C   0  0  0  0  0  0  0  0  0  0  0  0
   -0.7920  -52.7570    7.1330 H   0  0  0  0  0  0  0  0  0  0  0  0
   -2.5320  -51.6290    6.5080 C   0  0  0  0  0  0  0  0  0  0  0  0
   -3.2240  -52.4540    6.6880 H   0  0  0  0  0  0  0  0  0  0  0  0
   -3.0390  -50.4070    6.0280 C   0  0  0  0  0  0  0  0  0  0  0  0
   -4.1110  -50.3160    5.8430 H   0  0  0  0  0  0  0  0  0  0  0  0
   -2.2090  -49.3100    5.7890 C   0  0  0  0  0  0  0  0  0  0  0  0
   -2.6320  -48.3750    5.4230 H   0  0  0  0  0  0  0  0  0  0  0  0
   -0.8410  -49.4460    6.0390 C   0  0  0  0  0  0  0  0  0  0  0  0
    0.3210  -48.5720    5.9540 C   0  0  0  0  0  0  0  0  0  0  0  0
    0.2510  -47.1570    5.5060 C   0  0  0  0  0  0  0  0  0  0  0  0
    1.1240  -46.9110    4.8520 H   0  0  0  0  0  0  0  0  0  0  0  0
   -0.6900  -47.0210    4.9110 H   0  0  0  0  0  0  0  0  0  0  0  0
    0.2350  -46.1530    6.6730 C   0  0  0  0  0  0  0  0  0  0  0  0
    0.2050  -45.1180    6.2600 H   0  0  0  0  0  0  0  0  0  0  0  0
    1.1730  -46.2820    7.2720 H   0  0  0  0  0  0  0  0  0  0  0  0
   -0.9390  -46.3220    7.6300 C   0  0  0  0  0  0  0  0  0  0  0  0
   -0.8150  -45.6970    8.5420 H   0  0  0  0  0  0  0  0  0  0  0  0
   -1.1670  -47.3870    7.8410 H   0  0  0  0  0  0  0  0  0  0  0  0
   -2.1120  -45.7640    6.9260 O   0  0  0  0  0  0  0  0  0  0  0  0
   -3.3060  -45.7830    7.5840 C   0  0  0  0  0  0  0  0  0  0  0  0
   -4.3350  -45.0360    6.8930 C   0  0  0  0  0  0  0  0  0  0  0  0
   -5.6190  -44.9470    7.4930 C   0  0  0  0  0  0  0  0  0  0  0  0
   -5.8600  -45.5900    8.7470 C   0  0  0  0  0  0  0  0  0  0  0  0
   -6.8460  -45.5060    9.2010 H   0  0  0  0  0  0  0  0  0  0  0  0
   -4.8680  -46.3270    9.3460 C   0  0  0  0  0  0  0  0  0  0  0  0
   -5.0700  -46.8570   10.2800 H   0  0  0  0  0  0  0  0  0  0  0  0
   -3.5720  -46.4300    8.7770 C   0  0  0  0  0  0  0  0  0  0  0  0
   -2.8380  -47.0280    9.3050 H   0  0  0  0  0  0  0  0  0  0  0  0
   -6.6530  -44.2500    6.7950 C   0  0  0  0  0  0  0  0  0  0  0  0
   -7.6450  -44.1970    7.2420 H   0  0  0  0  0  0  0  0  0  0  0  0
   -6.4060  -43.6750    5.5710 C   0  0  0  0  0  0  0  0  0  0  0  0
   -7.1960  -43.1570    5.0330 H   0  0  0  0  0  0  0  0  0  0  0  0
   -5.1170  -43.7580    4.9790 C   0  0  0  0  0  0  0  0  0  0  0  0
   -4.9450  -43.2880    4.0140 H   0  0  0  0  0  0  0  0  0  0  0  0
   -4.1080  -44.4350    5.6220 C   0  0  0  0  0  0  0  0  0  0  0  0
   -3.1290  -44.5470    5.1550 H   0  0  0  0  0  0  0  0  0  0  0  0
  1  2  1  0  0  0  0
  2  3  2  0  0  0  0
  4  2  1  0  0  0  0
  4  5  1  0  0  0  0
  6  7  1  0  0  0  0
  6  5  1  0  0  0  0
  7  8  1  0  0  0  0
  9 10  1  0  0  0  0
  9  7  2  0  0  0  0
 11  9  1  0  0  0  0
 12 11  1  0  0  0  0
 13 11  2  0  0  0  0
 13 15  1  0  0  0  0
 14 13  1  0  0  0  0
 15  6  2  0  0  0  0
 16 15  1  0  0  0  0
 16  4  2  0  0  0  0
 17 16  1  0  0  0  0
 17 20  1  0  0  0  0
 18 17  1  0  0  0  0
 19 17  1  0  0  0  0
 20 22  1  0  0  0  0
 20 23  1  0  0  0  0
 21 20  1  0  0  0  0
 23 25  1  0  0  0  0
 23 24  1  0  0  0  0
 26 23  1  0  0  0  0
 26 27  1  0  0  0  0
 27 34  1  0  0  0  0
 28 27  2  0  0  0  0
 28 29  1  0  0  0  0
 29 30  2  0  0  0  0
 30 32  1  0  0  0  0
 30 31  1  0  0  0  0
 32 33  1  0  0  0  0
 34 35  1  0  0  0  0
 34 32  2  0  0  0  0
 36 29  1  0  0  0  0
 36 37  1  0  0  0  0
 38 36  2  0  0  0  0
 39 38  1  0  0  0  0
 40 42  2  0  0  0  0
 40 38  1  0  0  0  0
 41 40  1  0  0  0  0
 42 28  1  0  0  0  0
 43 42  1  0  0  0  0
M  CHG  1   1  -1
M  END
$$$$
