18639-1
 OpenBabel02232411163D
Structure written by MMmdl.
 48 49  0  0  0  0  0  0  0  0999 V2000
   23.2120   10.7870   29.0610 C   0  0  0  0  0  0  0  0  0  0  0  0
   23.4860   11.0440   30.5280 C   0  0  0  0  0  0  0  0  0  0  0  0
   22.2200   11.1560   31.2840 O   0  0  0  0  0  0  0  0  0  0  0  0
   21.5600   10.0290   31.6320 C   0  0  0  0  0  0  0  0  0  0  0  0
   22.0300    8.8300   31.2180 N   0  0  0  0  0  0  0  0  0  0  0  0
   21.2840    7.7060   31.5330 C   0  0  0  0  0  0  0  0  0  0  0  0
   20.1150    7.7630   32.2840 C   0  0  0  0  0  0  0  0  0  0  0  0
   19.6430    9.0240   32.7390 C   0  0  0  0  0  0  0  0  0  0  0  0
   18.4870    9.0840   33.4740 N   0  0  0  0  0  0  0  0  0  0  0  0
   20.3740   10.2090   32.4040 C   0  0  0  0  0  0  0  0  0  0  0  0
   19.9760   11.5160   32.7580 C   0  0  0  0  0  0  0  0  0  0  0  0
   19.6990   12.6140   33.0090 N   0  0  0  0  0  0  0  0  0  0  0  0
   21.8610    6.5360   30.9850 N   0  0  0  0  0  0  0  0  0  0  0  0
   21.2580    5.2660   30.8860 C   0  0  0  0  0  0  0  0  0  0  0  0
   20.1630    5.0190   31.3430 O   0  0  0  0  0  0  0  0  0  0  0  0
   22.0840    4.2680   30.0830 C   0  0  0  0  0  0  0  0  0  0  0  0
   23.4520    3.9990   30.6370 C   0  0  0  0  0  0  0  0  0  0  0  0
   24.5480    4.8610   30.3160 C   0  0  0  0  0  0  0  0  0  0  0  0
   24.1890    5.9070   29.4750 O   0  0  0  0  0  0  0  0  0  0  0  0
   25.1410    6.9940   29.3080 C   0  0  0  0  0  0  0  0  0  0  0  0
   25.8280    4.6220   30.7890 C   0  0  0  0  0  0  0  0  0  0  0  0
   26.0610    3.5080   31.6230 C   0  0  0  0  0  0  0  0  0  0  0  0
   27.4140    3.2540   32.1250 N   0  3  0  0  0  0  0  0  0  0  0  0
   27.5480    2.4700   33.0520 O   0  5  0  0  0  0  0  0  0  0  0  0
   28.3540    3.8300   31.5910 O   0  0  0  0  0  0  0  0  0  0  0  0
   24.9900    2.6420   31.9470 C   0  0  0  0  0  0  0  0  0  0  0  0
   23.6940    2.8950   31.4380 C   0  0  0  0  0  0  0  0  0  0  0  0
   25.3390    1.6060   32.7590 O   0  0  0  0  0  0  0  0  0  0  0  0
   24.3420    0.5680   33.0010 C   0  0  0  0  0  0  0  0  0  0  0  0
   24.1730   10.8410   28.4930 H   0  0  0  0  0  0  0  0  0  0  0  0
   22.5170   11.5480   28.6390 H   0  0  0  0  0  0  0  0  0  0  0  0
   22.7710    9.7750   28.9040 H   0  0  0  0  0  0  0  0  0  0  0  0
   23.8930   12.0680   30.7080 H   0  0  0  0  0  0  0  0  0  0  0  0
   24.1220   10.2500   30.9820 H   0  0  0  0  0  0  0  0  0  0  0  0
   19.5470    6.8590   32.5120 H   0  0  0  0  0  0  0  0  0  0  0  0
   17.9790    8.2180   33.7390 H   0  0  0  0  0  0  0  0  0  0  0  0
   18.0940    9.9750   33.7760 H   0  0  0  0  0  0  0  0  0  0  0  0
   22.7840    6.6820   30.5040 H   0  0  0  0  0  0  0  0  0  0  0  0
   21.5110    3.3040   30.0220 H   0  0  0  0  0  0  0  0  0  0  0  0
   22.1910    4.6830   29.0400 H   0  0  0  0  0  0  0  0  0  0  0  0
   25.4580    7.3930   30.2960 H   0  0  0  0  0  0  0  0  0  0  0  0
   25.9970    6.6380   28.6960 H   0  0  0  0  0  0  0  0  0  0  0  0
   24.5240    7.7400   28.7550 H   0  0  0  0  0  0  0  0  0  0  0  0
   26.6670    5.2740   30.5190 H   0  0  0  0  0  0  0  0  0  0  0  0
   22.8790    2.2060   31.6740 H   0  0  0  0  0  0  0  0  0  0  0  0
   24.9290   -0.1640   33.6050 H   0  0  0  0  0  0  0  0  0  0  0  0
   23.4950    0.9820   33.5880 H   0  0  0  0  0  0  0  0  0  0  0  0
   24.0160    0.1200   32.0370 H   0  0  0  0  0  0  0  0  0  0  0  0
  1  2  1  0  0  0  0
  1 30  1  0  0  0  0
  1 31  1  0  0  0  0
  1 32  1  0  0  0  0
  2  3  1  0  0  0  0
  2 33  1  0  0  0  0
  2 34  1  0  0  0  0
  3  4  1  0  0  0  0
  4 10  2  0  0  0  0
  4  5  1  0  0  0  0
  5  6  2  0  0  0  0
  6  7  1  0  0  0  0
  6 13  1  0  0  0  0
  7  8  2  0  0  0  0
  7 35  1  0  0  0  0
  8  9  1  0  0  0  0
  8 10  1  0  0  0  0
  9 36  1  0  0  0  0
  9 37  1  0  0  0  0
 10 11  1  0  0  0  0
 11 12  3  0  0  0  0
 13 14  1  0  0  0  0
 13 38  1  0  0  0  0
 14 15  2  0  0  0  0
 14 16  1  0  0  0  0
 16 17  1  0  0  0  0
 16 39  1  0  0  0  0
 16 40  1  0  0  0  0
 17 27  2  0  0  0  0
 17 18  1  0  0  0  0
 18 19  1  0  0  0  0
 18 21  2  0  0  0  0
 19 20  1  0  0  0  0
 20 41  1  0  0  0  0
 20 42  1  0  0  0  0
 20 43  1  0  0  0  0
 21 22  1  0  0  0  0
 21 44  1  0  0  0  0
 22 23  1  0  0  0  0
 22 26  2  0  0  0  0
 23 24  1  0  0  0  0
 23 25  2  0  0  0  0
 26 27  1  0  0  0  0
 26 28  1  0  0  0  0
 27 45  1  0  0  0  0
 28 29  1  0  0  0  0
 29 46  1  0  0  0  0
 29 47  1  0  0  0  0
 29 48  1  0  0  0  0
M  CHG  2  23   1  24  -1
M  END
$$$$
