CAT-13b
 OpenBabel02232411143D
Structure written by MMmdl.
 42 44  0  0  1  0  0  0  0  0999 V2000
   14.6850   -5.1790   -0.2570 C   0  0  0  0  0  0  0  0  0  0  0  0
   15.3620   -4.1860   -1.2030 C   0  0  0  0  0  0  0  0  0  0  0  0
   14.9930   -2.7200   -0.9140 C   0  0  2  0  0  0  0  0  0  0  0  0
   15.5280   -1.6670   -1.8670 C   0  0  0  0  0  0  0  0  0  0  0  0
   16.2270   -1.9910   -3.0340 C   0  0  0  0  0  0  0  0  0  0  0  0
   16.6390   -0.9680   -3.8970 C   0  0  0  0  0  0  0  0  0  0  0  0
   16.3770    0.3710   -3.6000 C   0  0  0  0  0  0  0  0  0  0  0  0
   15.7040    0.7120   -2.4150 C   0  0  0  0  0  0  0  0  0  0  0  0
   15.4340    2.1190   -2.0360 C   0  0  0  0  0  0  0  0  0  0  0  0
   15.0260    3.0700   -2.9840 C   0  0  0  0  0  0  0  0  0  0  0  0
   14.6990    4.3700   -2.5840 C   0  0  0  0  0  0  0  0  0  0  0  0
   14.7560    4.7380   -1.2360 C   0  0  0  0  0  0  0  0  0  0  0  0
   15.1730    3.7860   -0.3050 C   0  0  0  0  0  0  0  0  0  0  0  0
   15.1780    4.1750    1.3770 Cl  0  0  0  0  0  0  0  0  0  0  0  0
   15.5410    2.4960   -0.6850 C   0  0  0  0  0  0  0  0  0  0  0  0
   15.2660   -0.3200   -1.5700 C   0  0  0  0  0  0  0  0  0  0  0  0
   15.3980   -2.3650    0.5000 N   0  3  0  0  0  0  0  0  0  0  0  0
   14.2760   -2.3870    1.3380 C   0  0  0  0  0  0  0  0  0  0  0  0
   14.3560   -2.4500    2.6970 N   0  0  0  0  0  0  0  0  0  0  0  0
   13.1100   -2.4190    0.5750 N   0  0  0  0  0  0  0  0  0  0  0  0
   11.7700   -2.1920    1.1510 C   0  0  0  0  0  0  0  0  0  0  0  0
   13.4360   -2.5870   -0.8570 C   0  0  0  0  0  0  0  0  0  0  0  0
   12.5970   -2.5950   -1.6990 O   0  0  0  0  0  0  0  0  0  0  0  0
   13.6030   -5.2900   -0.4990 H   0  0  0  0  0  0  0  0  0  0  0  0
   15.1650   -6.1790   -0.3690 H   0  0  0  0  0  0  0  0  0  0  0  0
   14.7910   -4.8750    0.8080 H   0  0  0  0  0  0  0  0  0  0  0  0
   15.0600   -4.4310   -2.2530 H   0  0  0  0  0  0  0  0  0  0  0  0
   16.4760   -4.2920   -1.1120 H   0  0  0  0  0  0  0  0  0  0  0  0
   16.4550   -3.0270   -3.2840 H   0  0  0  0  0  0  0  0  0  0  0  0
   17.1810   -1.2220   -4.8150 H   0  0  0  0  0  0  0  0  0  0  0  0
   16.7010    1.1490   -4.2980 H   0  0  0  0  0  0  0  0  0  0  0  0
   14.9440    2.7950   -4.0410 H   0  0  0  0  0  0  0  0  0  0  0  0
   14.3720    5.1000   -3.3350 H   0  0  0  0  0  0  0  0  0  0  0  0
   14.4590    5.7410   -0.9220 H   0  0  0  0  0  0  0  0  0  0  0  0
   15.8920    1.7760    0.0560 H   0  0  0  0  0  0  0  0  0  0  0  0
   14.7140   -0.0800   -0.6650 H   0  0  0  0  0  0  0  0  0  0  0  0
   16.3080   -2.7370    0.8820 H   0  0  0  0  0  0  0  0  0  0  0  0
   13.6080   -2.0510    3.3140 H   0  0  0  0  0  0  0  0  0  0  0  0
   11.6940   -2.6790    2.1610 H   0  0  0  0  0  0  0  0  0  0  0  0
   11.5970   -1.0890    1.2520 H   0  0  0  0  0  0  0  0  0  0  0  0
   10.9940   -2.6440    0.4770 H   0  0  0  0  0  0  0  0  0  0  0  0
   15.3150   -2.3950    3.1410 H   0  0  0  0  0  0  0  0  0  0  0  0
  1  2  1  0  0  0  0
  1 24  1  0  0  0  0
  1 25  1  0  0  0  0
  1 26  1  0  0  0  0
  2 27  1  0  0  0  0
  2 28  1  0  0  0  0
  3  2  1  6  0  0  0
  3  4  1  0  0  0  0
  3 17  1  0  0  0  0
  3 22  1  0  0  0  0
  4  5  2  0  0  0  0
  4 16  1  0  0  0  0
  5  6  1  0  0  0  0
  5 29  1  0  0  0  0
  6  7  2  0  0  0  0
  6 30  1  0  0  0  0
  7  8  1  0  0  0  0
  7 31  1  0  0  0  0
  8  9  1  0  0  0  0
  8 16  2  0  0  0  0
  9 10  2  0  0  0  0
  9 15  1  0  0  0  0
 10 11  1  0  0  0  0
 10 32  1  0  0  0  0
 11 12  2  0  0  0  0
 11 33  1  0  0  0  0
 12 13  1  0  0  0  0
 12 34  1  0  0  0  0
 13 14  1  0  0  0  0
 13 15  2  0  0  0  0
 15 35  1  0  0  0  0
 16 36  1  0  0  0  0
 17 18  2  0  0  0  0
 17 37  1  0  0  0  0
 18 19  1  0  0  0  0
 18 20  1  0  0  0  0
 19 38  1  0  0  0  0
 19 42  1  0  0  0  0
 20 21  1  0  0  0  0
 20 22  1  0  0  0  0
 21 39  1  0  0  0  0
 21 40  1  0  0  0  0
 21 41  1  0  0  0  0
 22 23  2  0  0  0  0
M  CHG  1  17   1
M  END
$$$$
