p38a_2ee
 OpenBabel02232411163D
Structure written by MMmdl.
 52 55  0  0  0  0  0  0  0  0999 V2000
   38.2760   36.5550   17.1300 C   0  0  0  0  0  0  0  0  0  0  0  0
   34.5620   35.0930   21.1720 C   0  0  0  0  0  0  0  0  0  0  0  0
   37.4740   36.0960   18.1710 C   0  0  0  0  0  0  0  0  0  0  0  0
   33.9600   39.1520   23.7350 C   0  0  0  0  0  0  0  0  0  0  0  0
   34.6130   37.9740   21.3270 C   0  0  0  0  0  0  0  0  0  0  0  0
   34.9950   37.3260   20.1020 C   0  0  0  0  0  0  0  0  0  0  0  0
   37.6450   36.7340   15.8910 C   0  0  0  0  0  0  0  0  0  0  0  0
   36.2960   36.4530   15.6650 C   0  0  0  0  0  0  0  0  0  0  0  0
   35.5150   35.9780   16.7240 C   0  0  0  0  0  0  0  0  0  0  0  0
   34.2880   37.1910   22.4750 C   0  0  0  0  0  0  0  0  0  0  0  0
   34.5590   39.3860   21.4790 C   0  0  0  0  0  0  0  0  0  0  0  0
   35.0000   35.9730   20.0560 C   0  0  0  0  0  0  0  0  0  0  0  0
   36.1100   35.7920   17.9740 C   0  0  0  0  0  0  0  0  0  0  0  0
   33.9270   35.0030   23.6150 C   0  0  0  0  0  0  0  0  0  0  0  0
   37.9890   35.9410   19.3840 F   0  0  0  0  0  0  0  0  0  0  0  0
   35.3690   35.1630   18.9830 O   0  0  0  0  0  0  0  0  0  0  0  0
   34.2510   39.9870   22.6380 N   0  0  0  0  0  0  0  0  0  0  0  0
   34.4430   33.8890   21.1130 O   0  0  0  0  0  0  0  0  0  0  0  0
   34.2700   35.7880   22.3960 N   0  0  0  0  0  0  0  0  0  0  0  0
   33.9830   37.7720   23.6790 N   0  0  0  0  0  0  0  0  0  0  0  0
   33.5730   39.7530   24.9120 N   0  0  0  0  0  0  0  0  0  0  0  0
   39.3310   36.8010   17.2800 H   0  0  0  0  0  0  0  0  0  0  0  0
   35.2790   37.9510   19.2540 H   0  0  0  0  0  0  0  0  0  0  0  0
   35.8390   36.6140   14.6870 H   0  0  0  0  0  0  0  0  0  0  0  0
   34.4510   35.7710   16.5680 H   0  0  0  0  0  0  0  0  0  0  0  0
   34.7730   40.0390   20.6160 H   0  0  0  0  0  0  0  0  0  0  0  0
   34.6400   35.2550   24.4460 H   0  0  0  0  0  0  0  0  0  0  0  0
   32.8860   35.2560   23.9550 H   0  0  0  0  0  0  0  0  0  0  0  0
   33.9850   33.9050   23.4000 H   0  0  0  0  0  0  0  0  0  0  0  0
   33.6560   40.7820   25.0200 H   0  0  0  0  0  0  0  0  0  0  0  0
   38.3600   37.2370   14.8880 F   0  0  0  0  0  0  0  0  0  0  0  0
   32.1370   38.8670   28.3490 C   0  0  0  0  0  0  0  0  0  0  0  0
   32.2840   39.6260   27.0140 C   0  0  0  0  0  0  0  0  0  0  0  0
   33.4110   38.9790   26.1790 C   0  0  0  0  0  0  0  0  0  0  0  0
   34.7380   38.9590   26.9730 C   0  0  0  0  0  0  0  0  0  0  0  0
   34.5360   38.2410   28.3200 C   0  0  0  0  0  0  0  0  0  0  0  0
   33.4160   38.8290   29.1140 N   0  0  0  0  0  0  0  0  0  0  0  0
   31.8380   37.8010   28.1370 H   0  0  0  0  0  0  0  0  0  0  0  0
   31.3190   39.3310   28.9540 H   0  0  0  0  0  0  0  0  0  0  0  0
   32.5070   40.7010   27.2060 H   0  0  0  0  0  0  0  0  0  0  0  0
   31.3210   39.5640   26.4520 H   0  0  0  0  0  0  0  0  0  0  0  0
   33.1090   37.9220   25.9290 H   0  0  0  0  0  0  0  0  0  0  0  0
   35.5110   38.4060   26.3870 H   0  0  0  0  0  0  0  0  0  0  0  0
   35.0960   40.0020   27.1350 H   0  0  0  0  0  0  0  0  0  0  0  0
   34.2750   37.1620   28.1310 H   0  0  0  0  0  0  0  0  0  0  0  0
   35.4870   38.2860   28.9120 H   0  0  0  0  0  0  0  0  0  0  0  0
   33.7050   39.7560   30.1410 C   0  0  0  0  0  0  0  0  0  0  0  0
   34.8590   39.8480   30.5500 O   0  0  0  0  0  0  0  0  0  0  0  0
   32.5710   40.4970   30.7830 C   0  0  0  0  0  0  0  0  0  0  0  0
   31.7870   39.7980   31.1740 H   0  0  0  0  0  0  0  0  0  0  0  0
   32.9320   41.1090   31.6490 H   0  0  0  0  0  0  0  0  0  0  0  0
   32.0820   41.1970   30.0620 H   0  0  0  0  0  0  0  0  0  0  0  0
  1  3  2  0  0  0  0
  1  7  1  0  0  0  0
  1 22  1  0  0  0  0
  2 12  1  0  0  0  0
  2 18  2  0  0  0  0
  2 19  1  0  0  0  0
  3 13  1  0  0  0  0
  3 15  1  0  0  0  0
  4 17  2  0  0  0  0
  4 20  1  0  0  0  0
  4 21  1  0  0  0  0
  5  6  1  0  0  0  0
  5 10  1  0  0  0  0
  5 11  2  0  0  0  0
  6 12  2  0  0  0  0
  6 23  1  0  0  0  0
  7  8  2  0  0  0  0
  7 31  1  0  0  0  0
  8  9  1  0  0  0  0
  8 24  1  0  0  0  0
  9 13  2  0  0  0  0
  9 25  1  0  0  0  0
 10 19  1  0  0  0  0
 10 20  2  0  0  0  0
 11 17  1  0  0  0  0
 11 26  1  0  0  0  0
 12 16  1  0  0  0  0
 13 16  1  0  0  0  0
 14 19  1  0  0  0  0
 14 27  1  0  0  0  0
 14 28  1  0  0  0  0
 14 29  1  0  0  0  0
 21 30  1  0  0  0  0
 21 34  1  0  0  0  0
 32 33  1  0  0  0  0
 32 37  1  0  0  0  0
 32 38  1  0  0  0  0
 32 39  1  0  0  0  0
 33 34  1  0  0  0  0
 33 40  1  0  0  0  0
 33 41  1  0  0  0  0
 34 35  1  0  0  0  0
 34 42  1  0  0  0  0
 35 36  1  0  0  0  0
 35 43  1  0  0  0  0
 35 44  1  0  0  0  0
 36 37  1  0  0  0  0
 36 45  1  0  0  0  0
 36 46  1  0  0  0  0
 37 47  1  0  0  0  0
 47 48  2  0  0  0  0
 47 49  1  0  0  0  0
 49 50  1  0  0  0  0
 49 51  1  0  0  0  0
 49 52  1  0  0  0  0
M  END
$$$$
