18658-1
 OpenBabel02232411163D
Structure written by MMmdl.
 47 48  0  0  0  0  0  0  0  0999 V2000
   24.3580   13.1890   31.1080 O   0  0  0  0  0  0  0  0  0  0  0  0
   23.7430   12.4930   30.0160 C   0  0  0  0  0  0  0  0  0  0  0  0
   23.4230   11.0310   30.3440 C   0  0  0  0  0  0  0  0  0  0  0  0
   22.2450   11.1440   31.2290 O   0  0  0  0  0  0  0  0  0  0  0  0
   21.5950   10.0060   31.5830 C   0  0  0  0  0  0  0  0  0  0  0  0
   22.0460    8.8190   31.1260 N   0  0  0  0  0  0  0  0  0  0  0  0
   21.3080    7.6860   31.4530 C   0  0  0  0  0  0  0  0  0  0  0  0
   20.1630    7.7420   32.2420 C   0  0  0  0  0  0  0  0  0  0  0  0
   19.7060    8.9970   32.7260 C   0  0  0  0  0  0  0  0  0  0  0  0
   18.5590    9.0560   33.4770 N   0  0  0  0  0  0  0  0  0  0  0  0
   20.4400   10.1840   32.3990 C   0  0  0  0  0  0  0  0  0  0  0  0
   20.0700   11.4860   32.7960 C   0  0  0  0  0  0  0  0  0  0  0  0
   19.8200   12.5800   33.0890 N   0  0  0  0  0  0  0  0  0  0  0  0
   21.8570    6.5220   30.8800 N   0  0  0  0  0  0  0  0  0  0  0  0
   21.2890    5.2240   30.8780 C   0  0  0  0  0  0  0  0  0  0  0  0
   20.2310    4.9730   31.4110 O   0  0  0  0  0  0  0  0  0  0  0  0
   22.1050    4.2160   30.0820 C   0  0  0  0  0  0  0  0  0  0  0  0
   23.4490    3.9430   30.6920 C   0  0  0  0  0  0  0  0  0  0  0  0
   24.5620    4.7810   30.3940 C   0  0  0  0  0  0  0  0  0  0  0  0
   24.2480    5.8060   29.5060 O   0  0  0  0  0  0  0  0  0  0  0  0
   25.2310    6.8600   29.3280 C   0  0  0  0  0  0  0  0  0  0  0  0
   25.8210    4.5490   30.9380 C   0  0  0  0  0  0  0  0  0  0  0  0
   26.0080    3.4690   31.8140 C   0  0  0  0  0  0  0  0  0  0  0  0
   24.9250    2.6430   32.1100 C   0  0  0  0  0  0  0  0  0  0  0  0
   23.6450    2.8630   31.5420 C   0  0  0  0  0  0  0  0  0  0  0  0
   24.9410    1.5510   32.9530 O   0  0  0  0  0  0  0  0  0  0  0  0
   26.2020    1.2110   33.5840 C   0  0  0  0  0  0  0  0  0  0  0  0
   23.9440   12.9010   31.9540 H   0  0  0  0  0  0  0  0  0  0  0  0
   24.5080   12.5360   29.1990 H   0  0  0  0  0  0  0  0  0  0  0  0
   22.8170   13.0470   29.7260 H   0  0  0  0  0  0  0  0  0  0  0  0
   24.2330   10.5180   30.9100 H   0  0  0  0  0  0  0  0  0  0  0  0
   23.1430   10.4630   29.4260 H   0  0  0  0  0  0  0  0  0  0  0  0
   19.5980    6.8380   32.4810 H   0  0  0  0  0  0  0  0  0  0  0  0
   18.0490    8.1950   33.7490 H   0  0  0  0  0  0  0  0  0  0  0  0
   18.1820    9.9490   33.7980 H   0  0  0  0  0  0  0  0  0  0  0  0
   22.7690    6.6620   30.3730 H   0  0  0  0  0  0  0  0  0  0  0  0
   21.5220    3.2610   30.0100 H   0  0  0  0  0  0  0  0  0  0  0  0
   22.2510    4.6230   29.0440 H   0  0  0  0  0  0  0  0  0  0  0  0
   26.1080    6.4590   28.7770 H   0  0  0  0  0  0  0  0  0  0  0  0
   24.6640    7.5950   28.7130 H   0  0  0  0  0  0  0  0  0  0  0  0
   25.5190    7.2950   30.3100 H   0  0  0  0  0  0  0  0  0  0  0  0
   26.6780    5.1820   30.6980 H   0  0  0  0  0  0  0  0  0  0  0  0
   27.0020    3.3060   32.2340 H   0  0  0  0  0  0  0  0  0  0  0  0
   22.8350    2.1690   31.7810 H   0  0  0  0  0  0  0  0  0  0  0  0
   25.9230    0.3100   34.1800 H   0  0  0  0  0  0  0  0  0  0  0  0
   26.5400    2.0400   34.2430 H   0  0  0  0  0  0  0  0  0  0  0  0
   26.9640    0.9600   32.8130 H   0  0  0  0  0  0  0  0  0  0  0  0
  1  2  1  0  0  0  0
  1 28  1  0  0  0  0
  2  3  1  0  0  0  0
  2 29  1  0  0  0  0
  2 30  1  0  0  0  0
  3  4  1  0  0  0  0
  3 31  1  0  0  0  0
  3 32  1  0  0  0  0
  4  5  1  0  0  0  0
  5 11  2  0  0  0  0
  5  6  1  0  0  0  0
  6  7  2  0  0  0  0
  7  8  1  0  0  0  0
  7 14  1  0  0  0  0
  8  9  2  0  0  0  0
  8 33  1  0  0  0  0
  9 10  1  0  0  0  0
  9 11  1  0  0  0  0
 10 34  1  0  0  0  0
 10 35  1  0  0  0  0
 11 12  1  0  0  0  0
 12 13  3  0  0  0  0
 14 15  1  0  0  0  0
 14 36  1  0  0  0  0
 15 16  2  0  0  0  0
 15 17  1  0  0  0  0
 17 18  1  0  0  0  0
 17 37  1  0  0  0  0
 17 38  1  0  0  0  0
 18 25  2  0  0  0  0
 18 19  1  0  0  0  0
 19 20  1  0  0  0  0
 19 22  2  0  0  0  0
 20 21  1  0  0  0  0
 21 39  1  0  0  0  0
 21 40  1  0  0  0  0
 21 41  1  0  0  0  0
 22 23  1  0  0  0  0
 22 42  1  0  0  0  0
 23 24  2  0  0  0  0
 23 43  1  0  0  0  0
 24 25  1  0  0  0  0
 24 26  1  0  0  0  0
 25 44  1  0  0  0  0
 26 27  1  0  0  0  0
 27 45  1  0  0  0  0
 27 46  1  0  0  0  0
 27 47  1  0  0  0  0
M  END
$$$$
