CAT-17a
 OpenBabel02232411143D
Structure written by MMmdl.
 43 46  0  0  1  0  0  0  0  0999 V2000
   11.7670   -2.5810    1.2680 C   0  0  0  0  0  0  0  0  0  0  0  0
   13.0800   -2.2230    0.6920 N   0  0  0  0  0  0  0  0  0  0  0  0
   14.2200   -2.1070    1.4750 C   0  0  0  0  0  0  0  0  0  0  0  0
   14.2980   -2.3060    2.8160 N   0  0  0  0  0  0  0  0  0  0  0  0
   15.3550   -1.8410    0.6670 N   0  3  0  0  0  0  0  0  0  0  0  0
   15.0430   -2.3970   -0.7170 C   0  0  1  0  0  0  0  0  0  0  0  0
   15.5400   -1.4800   -1.8090 C   0  0  0  0  0  0  0  0  0  0  0  0
   15.9140   -1.9290   -3.0800 C   0  0  0  0  0  0  0  0  0  0  0  0
   16.3120   -1.0030   -4.0510 C   0  0  0  0  0  0  0  0  0  0  0  0
   16.2630    0.3690   -3.8000 C   0  0  0  0  0  0  0  0  0  0  0  0
   15.8110    0.8400   -2.5540 C   0  0  0  0  0  0  0  0  0  0  0  0
   15.5500    2.2760   -2.2960 C   0  0  0  0  0  0  0  0  0  0  0  0
   15.6130    2.7900   -0.9890 C   0  0  0  0  0  0  0  0  0  0  0  0
   15.1200    4.0680   -0.7280 C   0  0  0  0  0  0  0  0  0  0  0  0
   15.0070    4.5950    0.9080 Cl  0  0  0  0  0  0  0  0  0  0  0  0
   14.6540    4.9040   -1.7440 C   0  0  0  0  0  0  0  0  0  0  0  0
   14.6950    4.4100   -3.0510 C   0  0  0  0  0  0  0  0  0  0  0  0
   14.1770    5.4210   -4.3370 Cl  0  0  0  0  0  0  0  0  0  0  0  0
   15.1100    3.1080   -3.3400 C   0  0  0  0  0  0  0  0  0  0  0  0
   15.4930   -0.0970   -1.5600 C   0  0  0  0  0  0  0  0  0  0  0  0
   15.4040   -3.8660   -0.5970 C   0  0  0  0  0  0  0  0  0  0  0  0
   14.9120   -4.9090   -1.5740 C   0  0  0  0  0  0  0  0  0  0  0  0
   16.3980   -4.6590   -1.4270 C   0  0  0  0  0  0  0  0  0  0  0  0
   13.4700   -2.3500   -0.7370 C   0  0  0  0  0  0  0  0  0  0  0  0
   12.6650   -2.3800   -1.6070 O   0  0  0  0  0  0  0  0  0  0  0  0
   11.7810   -3.6510    1.6160 H   0  0  0  0  0  0  0  0  0  0  0  0
   11.5420   -1.9200    2.1420 H   0  0  0  0  0  0  0  0  0  0  0  0
   10.9700   -2.4490    0.4880 H   0  0  0  0  0  0  0  0  0  0  0  0
   13.5190   -2.0220    3.4590 H   0  0  0  0  0  0  0  0  0  0  0  0
   16.2750   -2.1850    1.0710 H   0  0  0  0  0  0  0  0  0  0  0  0
   15.8800   -2.9860   -3.3430 H   0  0  0  0  0  0  0  0  0  0  0  0
   16.6560   -1.3600   -5.0270 H   0  0  0  0  0  0  0  0  0  0  0  0
   16.5690    1.0640   -4.5890 H   0  0  0  0  0  0  0  0  0  0  0  0
   16.0150    2.1830   -0.1740 H   0  0  0  0  0  0  0  0  0  0  0  0
   14.2410    5.8930   -1.5230 H   0  0  0  0  0  0  0  0  0  0  0  0
   15.0630    2.7340   -4.3680 H   0  0  0  0  0  0  0  0  0  0  0  0
   15.1870    0.2420   -0.5710 H   0  0  0  0  0  0  0  0  0  0  0  0
   15.3860   -4.1900    0.4670 H   0  0  0  0  0  0  0  0  0  0  0  0
   14.4720   -5.8170   -1.1380 H   0  0  0  0  0  0  0  0  0  0  0  0
   14.4070   -4.5930   -2.4940 H   0  0  0  0  0  0  0  0  0  0  0  0
   16.9600   -4.1780   -2.2310 H   0  0  0  0  0  0  0  0  0  0  0  0
   17.0100   -5.3890   -0.8760 H   0  0  0  0  0  0  0  0  0  0  0  0
   15.2450   -2.1930    3.2820 H   0  0  0  0  0  0  0  0  0  0  0  0
  1  2  1  0  0  0  0
  1 26  1  0  0  0  0
  1 27  1  0  0  0  0
  1 28  1  0  0  0  0
  2  3  1  0  0  0  0
  2 24  1  0  0  0  0
  3  4  1  0  0  0  0
  3  5  2  0  0  0  0
  4 29  1  0  0  0  0
  4 43  1  0  0  0  0
  5  6  1  0  0  0  0
  5 30  1  0  0  0  0
  6  7  1  6  0  0  0
  6 21  1  0  0  0  0
  6 24  1  0  0  0  0
  7  8  2  0  0  0  0
  7 20  1  0  0  0  0
  8  9  1  0  0  0  0
  8 31  1  0  0  0  0
  9 10  2  0  0  0  0
  9 32  1  0  0  0  0
 10 11  1  0  0  0  0
 10 33  1  0  0  0  0
 11 12  1  0  0  0  0
 11 20  2  0  0  0  0
 12 13  2  0  0  0  0
 12 19  1  0  0  0  0
 13 14  1  0  0  0  0
 13 34  1  0  0  0  0
 14 15  1  0  0  0  0
 14 16  2  0  0  0  0
 16 17  1  0  0  0  0
 16 35  1  0  0  0  0
 17 18  1  0  0  0  0
 17 19  2  0  0  0  0
 19 36  1  0  0  0  0
 20 37  1  0  0  0  0
 21 22  1  0  0  0  0
 21 23  1  0  0  0  0
 21 38  1  0  0  0  0
 22 23  1  0  0  0  0
 22 39  1  0  0  0  0
 22 40  1  0  0  0  0
 23 41  1  0  0  0  0
 23 42  1  0  0  0  0
 24 25  2  0  0  0  0
M  CHG  1   5   1
M  END
$$$$
