p38a_2z
 OpenBabel02232411163D
Structure written by MMmdl.
 45 47  0  0  0  0  0  0  0  0999 V2000
   36.3980   36.1170   15.7080 C   0  0  0  0  0  0  0  0  0  0  0  0
   34.4960   34.9250   21.0570 C   0  0  0  0  0  0  0  0  0  0  0  0
   35.8170   35.5960   16.8590 C   0  0  0  0  0  0  0  0  0  0  0  0
   33.6590   38.9250   23.6560 C   0  0  0  0  0  0  0  0  0  0  0  0
   32.5220   38.8260   25.9400 C   0  0  0  0  0  0  0  0  0  0  0  0
   34.7390   37.7790   21.3830 C   0  0  0  0  0  0  0  0  0  0  0  0
   35.3590   37.1430   20.2520 C   0  0  0  0  0  0  0  0  0  0  0  0
   37.6830   36.6570   15.8470 C   0  0  0  0  0  0  0  0  0  0  0  0
   38.3860   36.6700   17.0550 C   0  0  0  0  0  0  0  0  0  0  0  0
   37.7650   36.1760   18.2070 C   0  0  0  0  0  0  0  0  0  0  0  0
   34.0570   36.9960   22.3610 C   0  0  0  0  0  0  0  0  0  0  0  0
   34.7860   39.1820   21.6090 C   0  0  0  0  0  0  0  0  0  0  0  0
   35.2670   35.7990   20.1310 C   0  0  0  0  0  0  0  0  0  0  0  0
   36.4800   35.6370   18.1030 C   0  0  0  0  0  0  0  0  0  0  0  0
   33.1700   34.8170   23.1980 C   0  0  0  0  0  0  0  0  0  0  0  0
   34.6180   35.0310   16.8130 F   0  0  0  0  0  0  0  0  0  0  0  0
   35.8430   34.9800   19.1620 O   0  0  0  0  0  0  0  0  0  0  0  0
   34.2820   39.7640   22.7040 N   0  0  0  0  0  0  0  0  0  0  0  0
   34.3280   33.7330   20.9140 O   0  0  0  0  0  0  0  0  0  0  0  0
   33.9280   35.6060   22.1870 N   0  0  0  0  0  0  0  0  0  0  0  0
   33.5190   37.5610   23.4880 N   0  0  0  0  0  0  0  0  0  0  0  0
   33.1380   39.5410   24.7700 N   0  0  0  0  0  0  0  0  0  0  0  0
   35.8740   36.1240   14.7500 H   0  0  0  0  0  0  0  0  0  0  0  0
   31.1910   38.1800   25.5220 C   0  0  0  0  0  0  0  0  0  0  0  0
   35.8950   37.7710   19.5360 H   0  0  0  0  0  0  0  0  0  0  0  0
   39.3950   37.0850   17.1160 H   0  0  0  0  0  0  0  0  0  0  0  0
   38.2810   36.2360   19.1680 H   0  0  0  0  0  0  0  0  0  0  0  0
   35.2550   39.8410   20.8590 H   0  0  0  0  0  0  0  0  0  0  0  0
   33.6660   34.8970   24.2030 H   0  0  0  0  0  0  0  0  0  0  0  0
   32.1220   35.2120   23.2870 H   0  0  0  0  0  0  0  0  0  0  0  0
   33.1300   33.7380   22.8980 H   0  0  0  0  0  0  0  0  0  0  0  0
   33.3530   40.5460   24.9310 H   0  0  0  0  0  0  0  0  0  0  0  0
   38.2440   37.2150   14.7770 F   0  0  0  0  0  0  0  0  0  0  0  0
   33.4770   37.7320   26.5150 C   0  0  0  0  0  0  0  0  0  0  0  0
   32.2530   39.8980   27.0160 C   0  0  0  0  0  0  0  0  0  0  0  0
   34.8390   38.1710   26.5560 O   0  0  0  0  0  0  0  0  0  0  0  0
   34.9220   38.9150   27.2020 H   0  0  0  0  0  0  0  0  0  0  0  0
   33.1420   37.4470   27.5410 H   0  0  0  0  0  0  0  0  0  0  0  0
   33.5160   36.8360   25.8510 H   0  0  0  0  0  0  0  0  0  0  0  0
   31.7150   39.4440   27.8790 H   0  0  0  0  0  0  0  0  0  0  0  0
   33.1900   40.3640   27.3910 H   0  0  0  0  0  0  0  0  0  0  0  0
   31.6180   40.7010   26.5840 H   0  0  0  0  0  0  0  0  0  0  0  0
   30.7220   37.6880   26.4070 H   0  0  0  0  0  0  0  0  0  0  0  0
   30.4900   38.9540   25.1380 H   0  0  0  0  0  0  0  0  0  0  0  0
   31.3380   37.4050   24.7360 H   0  0  0  0  0  0  0  0  0  0  0  0
  1  3  2  0  0  0  0
  1  8  1  0  0  0  0
  1 23  1  0  0  0  0
  2 13  1  0  0  0  0
  2 19  2  0  0  0  0
  2 20  1  0  0  0  0
  3 14  1  0  0  0  0
  3 16  1  0  0  0  0
  4 18  2  0  0  0  0
  4 21  1  0  0  0  0
  4 22  1  0  0  0  0
  5 22  1  0  0  0  0
  5 24  1  0  0  0  0
  5 34  1  0  0  0  0
  5 35  1  0  0  0  0
  6  7  1  0  0  0  0
  6 11  1  0  0  0  0
  6 12  2  0  0  0  0
  7 13  2  0  0  0  0
  7 25  1  0  0  0  0
  8  9  2  0  0  0  0
  8 33  1  0  0  0  0
  9 10  1  0  0  0  0
  9 26  1  0  0  0  0
 10 14  2  0  0  0  0
 10 27  1  0  0  0  0
 11 20  1  0  0  0  0
 11 21  2  0  0  0  0
 12 18  1  0  0  0  0
 12 28  1  0  0  0  0
 13 17  1  0  0  0  0
 14 17  1  0  0  0  0
 15 20  1  0  0  0  0
 15 29  1  0  0  0  0
 15 30  1  0  0  0  0
 15 31  1  0  0  0  0
 22 32  1  0  0  0  0
 24 43  1  0  0  0  0
 24 44  1  0  0  0  0
 24 45  1  0  0  0  0
 34 36  1  0  0  0  0
 34 38  1  0  0  0  0
 34 39  1  0  0  0  0
 35 40  1  0  0  0  0
 35 41  1  0  0  0  0
 35 42  1  0  0  0  0
 36 37  1  0  0  0  0
M  END
$$$$
