27
 OpenBabel02232411163D
Structure written by MMmdl.
 38 40  0  0  0  0  0  0  0  0999 V2000
    3.3980  -48.2180    7.0960 O   0  0  0  0  0  0  0  0  0  0  0  0
    3.0050  -49.1990    6.4520 C   0  0  0  0  0  0  0  0  0  0  0  0
    3.7150  -50.0360    5.8590 O   0  5  0  0  0  0  0  0  0  0  0  0
    1.4900  -49.4730    6.3730 C   0  0  0  0  0  0  0  0  0  0  0  0
   -0.3810  -50.7840    6.5330 C   0  0  0  0  0  0  0  0  0  0  0  0
   -1.3120  -51.8130    6.7570 C   0  0  0  0  0  0  0  0  0  0  0  0
   -2.6400  -51.5500    6.4540 C   0  0  0  0  0  0  0  0  0  0  0  0
   -3.0400  -50.2960    5.9340 C   0  0  0  0  0  0  0  0  0  0  0  0
   -2.1250  -49.2750    5.7140 C   0  0  0  0  0  0  0  0  0  0  0  0
   -0.7720  -49.4950    6.0170 C   0  0  0  0  0  0  0  0  0  0  0  0
    0.4270  -48.6860    5.9440 C   0  0  0  0  0  0  0  0  0  0  0  0
    0.4350  -47.2690    5.4940 C   0  0  0  0  0  0  0  0  0  0  0  0
    0.3300  -46.2670    6.6590 C   0  0  0  0  0  0  0  0  0  0  0  0
   -1.0000  -46.3210    7.4090 C   0  0  0  0  0  0  0  0  0  0  0  0
   -1.9700  -45.7530    6.4540 O   0  0  0  0  0  0  0  0  0  0  0  0
   -3.2250  -45.4580    6.8990 C   0  0  0  0  0  0  0  0  0  0  0  0
   -3.7770  -45.8820    8.1200 C   0  0  0  0  0  0  0  0  0  0  0  0
   -5.0820  -45.4900    8.4360 C   0  0  0  0  0  0  0  0  0  0  0  0
   -5.8240  -44.6940    7.5620 C   0  0  0  0  0  0  0  0  0  0  0  0
   -5.2650  -44.2900    6.3400 C   0  0  0  0  0  0  0  0  0  0  0  0
   -3.9720  -44.6660    5.9950 C   0  0  0  0  0  0  0  0  0  0  0  0
   -1.0110  -52.7800    7.1590 H   0  0  0  0  0  0  0  0  0  0  0  0
   -3.3980  -52.3160    6.6190 H   0  0  0  0  0  0  0  0  0  0  0  0
   -4.0960  -50.1390    5.7060 H   0  0  0  0  0  0  0  0  0  0  0  0
   -2.4620  -48.3170    5.3140 H   0  0  0  0  0  0  0  0  0  0  0  0
   -0.4430  -47.1020    4.8170 H   0  0  0  0  0  0  0  0  0  0  0  0
    1.3680  -47.0410    4.9250 H   0  0  0  0  0  0  0  0  0  0  0  0
    0.4500  -45.2340    6.2550 H   0  0  0  0  0  0  0  0  0  0  0  0
    1.1430  -46.4720    7.3970 H   0  0  0  0  0  0  0  0  0  0  0  0
   -0.9930  -45.6610    8.3020 H   0  0  0  0  0  0  0  0  0  0  0  0
   -1.3370  -47.3550    7.6320 H   0  0  0  0  0  0  0  0  0  0  0  0
   -3.2330  -46.5160    8.8150 H   0  0  0  0  0  0  0  0  0  0  0  0
   -3.5380  -44.3630    5.0460 H   0  0  0  0  0  0  0  0  0  0  0  0
    1.0060  -50.7440    6.7420 N   0  0  0  0  0  0  0  0  0  0  0  0
    1.5420  -51.5330    7.0850 H   0  0  0  0  0  0  0  0  0  0  0  0
   -5.8550  -43.6780    5.6550 H   0  0  0  0  0  0  0  0  0  0  0  0
   -6.8380  -44.3950    7.8200 H   0  0  0  0  0  0  0  0  0  0  0  0
   -5.5300  -45.8140    9.3790 H   0  0  0  0  0  0  0  0  0  0  0  0
  1  2  2  0  0  0  0
  2  3  1  0  0  0  0
  2  4  1  0  0  0  0
  4 11  2  0  0  0  0
  4 34  1  0  0  0  0
  5  6  2  0  0  0  0
  5 10  1  0  0  0  0
  5 34  1  0  0  0  0
  6  7  1  0  0  0  0
  6 22  1  0  0  0  0
  7  8  2  0  0  0  0
  7 23  1  0  0  0  0
  8  9  1  0  0  0  0
  8 24  1  0  0  0  0
  9 10  2  0  0  0  0
  9 25  1  0  0  0  0
 10 11  1  0  0  0  0
 11 12  1  0  0  0  0
 12 26  1  0  0  0  0
 12 27  1  0  0  0  0
 12 13  1  0  0  0  0
 13 14  1  0  0  0  0
 13 28  1  0  0  0  0
 13 29  1  0  0  0  0
 14 15  1  0  0  0  0
 14 30  1  0  0  0  0
 14 31  1  0  0  0  0
 15 16  1  0  0  0  0
 16 17  2  0  0  0  0
 16 21  1  0  0  0  0
 17 18  1  0  0  0  0
 17 32  1  0  0  0  0
 18 19  2  0  0  0  0
 18 38  1  0  0  0  0
 19 20  1  0  0  0  0
 19 37  1  0  0  0  0
 20 21  2  0  0  0  0
 20 36  1  0  0  0  0
 21 33  1  0  0  0  0
 34 35  1  0  0  0  0
M  CHG  1   3  -1
M  END
$$$$
