57
 OpenBabel02232411163D
Structure written by MMmdl.
 47 50  0  0  0  0  0  0  0  0999 V2000
    3.3250  -48.1230    7.0970 O   0  0  0  0  0  0  0  0  0  0  0  0
    2.9440  -49.0890    6.4200 C   0  0  0  0  0  0  0  0  0  0  0  0
    3.6570  -49.8470    5.7340 O   0  5  0  0  0  0  0  0  0  0  0  0
    1.4410  -49.4320    6.3990 C   0  0  0  0  0  0  0  0  0  0  0  0
   -0.4140  -50.7690    6.5890 C   0  0  0  0  0  0  0  0  0  0  0  0
   -1.3380  -51.8030    6.8310 C   0  0  0  0  0  0  0  0  0  0  0  0
   -2.6640  -51.5680    6.5020 C   0  0  0  0  0  0  0  0  0  0  0  0
   -3.0780  -50.3340    5.9450 C   0  0  0  0  0  0  0  0  0  0  0  0
   -2.1750  -49.3080    5.7110 C   0  0  0  0  0  0  0  0  0  0  0  0
   -0.8210  -49.5020    6.0340 C   0  0  0  0  0  0  0  0  0  0  0  0
    0.3620  -48.6780    5.9430 C   0  0  0  0  0  0  0  0  0  0  0  0
    0.3410  -47.2710    5.4610 C   0  0  0  0  0  0  0  0  0  0  0  0
    0.3080  -46.2410    6.6050 C   0  0  0  0  0  0  0  0  0  0  0  0
   -0.8530  -46.4020    7.5790 C   0  0  0  0  0  0  0  0  0  0  0  0
   -2.0410  -45.8600    6.8850 O   0  0  0  0  0  0  0  0  0  0  0  0
   -3.2190  -45.8580    7.5690 C   0  0  0  0  0  0  0  0  0  0  0  0
   -5.7390  -45.6200    8.8000 C   0  0  0  0  0  0  0  0  0  0  0  0
   -4.7480  -46.3800    9.3700 C   0  0  0  0  0  0  0  0  0  0  0  0
   -3.4690  -46.5030    8.7680 C   0  0  0  0  0  0  0  0  0  0  0  0
   -1.0350  -52.7560    7.2630 H   0  0  0  0  0  0  0  0  0  0  0  0
   -3.4120  -52.3430    6.6770 H   0  0  0  0  0  0  0  0  0  0  0  0
   -4.1330  -50.2000    5.7010 H   0  0  0  0  0  0  0  0  0  0  0  0
   -2.5190  -48.3630    5.2860 H   0  0  0  0  0  0  0  0  0  0  0  0
   -0.5720  -47.1210    4.8300 H   0  0  0  0  0  0  0  0  0  0  0  0
    1.2420  -47.0580    4.8350 H   0  0  0  0  0  0  0  0  0  0  0  0
    1.2480  -46.3400    7.2050 H   0  0  0  0  0  0  0  0  0  0  0  0
    0.2570  -45.2180    6.1670 H   0  0  0  0  0  0  0  0  0  0  0  0
   -0.7180  -45.7650    8.4790 H   0  0  0  0  0  0  0  0  0  0  0  0
   -1.0720  -47.4640    7.8130 H   0  0  0  0  0  0  0  0  0  0  0  0
   -2.7350  -47.1190    9.2740 H   0  0  0  0  0  0  0  0  0  0  0  0
   -5.5160  -44.9720    7.5460 C   0  0  0  0  0  0  0  0  0  0  0  0
   -4.2520  -45.0900    6.9080 C   0  0  0  0  0  0  0  0  0  0  0  0
   -4.0490  -44.4860    5.6340 C   0  0  0  0  0  0  0  0  0  0  0  0
   -5.0560  -43.7730    5.0290 C   0  0  0  0  0  0  0  0  0  0  0  0
   -6.3210  -43.6530    5.6630 C   0  0  0  0  0  0  0  0  0  0  0  0
   -6.5490  -44.2340    6.8880 C   0  0  0  0  0  0  0  0  0  0  0  0
   -3.0870  -44.6210    5.1360 H   0  0  0  0  0  0  0  0  0  0  0  0
   -4.9020  -43.3010    4.0610 H   0  0  0  0  0  0  0  0  0  0  0  0
   -7.1080  -43.0960    5.1600 H   0  0  0  0  0  0  0  0  0  0  0  0
   -7.5230  -44.1520    7.3680 H   0  0  0  0  0  0  0  0  0  0  0  0
   -4.9360  -46.9110   10.3060 H   0  0  0  0  0  0  0  0  0  0  0  0
   -6.7120  -45.5180    9.2800 H   0  0  0  0  0  0  0  0  0  0  0  0
    1.7240  -51.7770    7.4560 C   0  0  0  0  0  0  0  0  0  0  0  0
    1.5020  -52.7690    6.9690 H   0  0  0  0  0  0  0  0  0  0  0  0
    2.8310  -51.6090    7.4110 H   0  0  0  0  0  0  0  0  0  0  0  0
    1.4150  -51.8560    8.5360 H   0  0  0  0  0  0  0  0  0  0  0  0
    0.9770  -50.7040    6.7870 N   0  0  0  0  0  0  0  0  0  0  0  0
  1  2  2  0  0  0  0
  2  3  1  0  0  0  0
  2  4  1  0  0  0  0
  4 11  2  0  0  0  0
  4 47  1  0  0  0  0
  5  6  2  0  0  0  0
  5 10  1  0  0  0  0
  5 47  1  0  0  0  0
  6  7  1  0  0  0  0
  6 20  1  0  0  0  0
  7  8  2  0  0  0  0
  7 21  1  0  0  0  0
  8  9  1  0  0  0  0
  8 22  1  0  0  0  0
  9 10  2  0  0  0  0
  9 23  1  0  0  0  0
 10 11  1  0  0  0  0
 11 12  1  0  0  0  0
 12 24  1  0  0  0  0
 12 25  1  0  0  0  0
 12 13  1  0  0  0  0
 13 14  1  0  0  0  0
 13 26  1  0  0  0  0
 13 27  1  0  0  0  0
 14 15  1  0  0  0  0
 14 28  1  0  0  0  0
 14 29  1  0  0  0  0
 15 16  1  0  0  0  0
 16 19  2  0  0  0  0
 16 32  1  0  0  0  0
 17 18  2  0  0  0  0
 17 31  1  0  0  0  0
 17 42  1  0  0  0  0
 18 19  1  0  0  0  0
 18 41  1  0  0  0  0
 19 30  1  0  0  0  0
 31 32  2  0  0  0  0
 31 36  1  0  0  0  0
 32 33  1  0  0  0  0
 33 34  2  0  0  0  0
 33 37  1  0  0  0  0
 34 35  1  0  0  0  0
 34 38  1  0  0  0  0
 35 36  2  0  0  0  0
 35 39  1  0  0  0  0
 36 40  1  0  0  0  0
 43 44  1  0  0  0  0
 43 45  1  0  0  0  0
 43 46  1  0  0  0  0
 43 47  1  0  0  0  0
M  CHG  1   3  -1
M  END
$$$$
