p38a_2f
 OpenBabel02232411163D
Structure written by MMmdl.
 46 49  0  0  0  0  0  0  0  0999 V2000
   34.3480   38.1800   27.1350 C   0  0  0  0  0  0  0  0  0  0  0  0
   33.3350   37.0630   26.8620 C   0  0  0  0  0  0  0  0  0  0  0  0
   31.5290   38.6180   26.5360 C   0  0  0  0  0  0  0  0  0  0  0  0
   32.3920   39.8210   26.9190 C   0  0  0  0  0  0  0  0  0  0  0  0
   37.8440   36.1510   17.3730 C   0  0  0  0  0  0  0  0  0  0  0  0
   31.9810   37.4290   27.2130 O   0  0  0  0  0  0  0  0  0  0  0  0
   34.5820   35.2550   21.5140 C   0  0  0  0  0  0  0  0  0  0  0  0
   37.0030   35.9370   18.4690 C   0  0  0  0  0  0  0  0  0  0  0  0
   34.3680   39.3150   24.1410 C   0  0  0  0  0  0  0  0  0  0  0  0
   33.9050   39.5830   26.6980 C   0  0  0  0  0  0  0  0  0  0  0  0
   34.6460   38.1230   21.6630 C   0  0  0  0  0  0  0  0  0  0  0  0
   34.7630   37.4850   20.3850 C   0  0  0  0  0  0  0  0  0  0  0  0
   37.3960   36.1690   16.0500 C   0  0  0  0  0  0  0  0  0  0  0  0
   36.0330   35.9560   15.8110 C   0  0  0  0  0  0  0  0  0  0  0  0
   35.1490   35.7240   16.8660 C   0  0  0  0  0  0  0  0  0  0  0  0
   34.5780   37.3490   22.8600 C   0  0  0  0  0  0  0  0  0  0  0  0
   34.5640   39.5360   21.8020 C   0  0  0  0  0  0  0  0  0  0  0  0
   34.7360   36.1310   20.3310 C   0  0  0  0  0  0  0  0  0  0  0  0
   35.6510   35.7280   18.1760 C   0  0  0  0  0  0  0  0  0  0  0  0
   34.7160   35.1280   24.0220 C   0  0  0  0  0  0  0  0  0  0  0  0
   37.3770   35.9660   19.4920 H   0  0  0  0  0  0  0  0  0  0  0  0
   34.7060   35.3900   19.1500 O   0  0  0  0  0  0  0  0  0  0  0  0
   34.4230   40.1360   22.9860 N   0  0  0  0  0  0  0  0  0  0  0  0
   34.4210   34.0550   21.5010 O   0  0  0  0  0  0  0  0  0  0  0  0
   34.6330   35.9500   22.7830 N   0  0  0  0  0  0  0  0  0  0  0  0
   34.4360   37.9410   24.0960 N   0  0  0  0  0  0  0  0  0  0  0  0
   34.3200   40.0190   25.3240 N   0  0  0  0  0  0  0  0  0  0  0  0
   34.5440   38.2320   28.2390 H   0  0  0  0  0  0  0  0  0  0  0  0
   35.3170   37.9170   26.6380 H   0  0  0  0  0  0  0  0  0  0  0  0
   33.3380   36.7710   25.7890 H   0  0  0  0  0  0  0  0  0  0  0  0
   33.5250   36.1890   27.5300 H   0  0  0  0  0  0  0  0  0  0  0  0
   30.4900   38.7280   26.9210 H   0  0  0  0  0  0  0  0  0  0  0  0
   31.5480   38.4500   25.4360 H   0  0  0  0  0  0  0  0  0  0  0  0
   32.0590   40.7170   26.3420 H   0  0  0  0  0  0  0  0  0  0  0  0
   32.2530   40.0530   28.0050 H   0  0  0  0  0  0  0  0  0  0  0  0
   39.1400   36.3490   17.6040 F   0  0  0  0  0  0  0  0  0  0  0  0
   34.4620   40.3300   27.3550 H   0  0  0  0  0  0  0  0  0  0  0  0
   34.8690   38.1100   19.4940 H   0  0  0  0  0  0  0  0  0  0  0  0
   35.6500   35.9910   14.7900 H   0  0  0  0  0  0  0  0  0  0  0  0
   34.0840   35.5790   16.6720 H   0  0  0  0  0  0  0  0  0  0  0  0
   34.5980   40.1770   20.9040 H   0  0  0  0  0  0  0  0  0  0  0  0
   35.3120   35.6680   24.8070 H   0  0  0  0  0  0  0  0  0  0  0  0
   33.6880   34.9190   24.4180 H   0  0  0  0  0  0  0  0  0  0  0  0
   35.2260   34.1550   23.7950 H   0  0  0  0  0  0  0  0  0  0  0  0
   34.1900   41.0570   25.2290 H   0  0  0  0  0  0  0  0  0  0  0  0
   38.0690   36.3710   15.2190 H   0  0  0  0  0  0  0  0  0  0  0  0
  1  2  1  0  0  0  0
  1 10  1  0  0  0  0
  1 28  1  0  0  0  0
  1 29  1  0  0  0  0
  2  6  1  0  0  0  0
  2 30  1  0  0  0  0
  2 31  1  0  0  0  0
  3  4  1  0  0  0  0
  3  6  1  0  0  0  0
  3 32  1  0  0  0  0
  3 33  1  0  0  0  0
  4 10  1  0  0  0  0
  4 34  1  0  0  0  0
  4 35  1  0  0  0  0
  5  8  2  0  0  0  0
  5 13  1  0  0  0  0
  5 36  1  0  0  0  0
  7 18  1  0  0  0  0
  7 24  2  0  0  0  0
  7 25  1  0  0  0  0
  8 19  1  0  0  0  0
  8 21  1  0  0  0  0
  9 23  2  0  0  0  0
  9 26  1  0  0  0  0
  9 27  1  0  0  0  0
 10 27  1  0  0  0  0
 10 37  1  0  0  0  0
 11 12  1  0  0  0  0
 11 16  1  0  0  0  0
 11 17  2  0  0  0  0
 12 18  2  0  0  0  0
 12 38  1  0  0  0  0
 13 14  2  0  0  0  0
 13 46  1  0  0  0  0
 14 15  1  0  0  0  0
 14 39  1  0  0  0  0
 15 19  2  0  0  0  0
 15 40  1  0  0  0  0
 16 25  1  0  0  0  0
 16 26  2  0  0  0  0
 17 23  1  0  0  0  0
 17 41  1  0  0  0  0
 18 22  1  0  0  0  0
 19 22  1  0  0  0  0
 20 25  1  0  0  0  0
 20 42  1  0  0  0  0
 20 43  1  0  0  0  0
 20 44  1  0  0  0  0
 27 45  1  0  0  0  0
M  END
$$$$
