18634-1 flip
                    3D
 Schrodinger Suite 2022-3.
 46 47  0  0  1  0  0  0  0  0999 V2000
   25.2930    2.7170   31.6000 C   0  0  0  0  0  0  0  0  0  0  0  0
   23.9580    2.9380   31.2230 C   0  0  0  0  0  0  0  0  0  0  0  0
   23.5890    4.0380   30.4140 C   0  0  0  0  0  0  0  0  0  0  0  0
   24.5950    4.9030   29.9630 C   0  0  0  0  0  0  0  0  0  0  0  0
   25.9220    4.6870   30.3570 C   0  0  0  0  0  0  0  0  0  0  0  0
   26.2800    3.5980   31.1760 C   0  0  0  0  0  0  0  0  0  0  0  0
   22.1510    4.2280   30.0240 C   0  0  0  0  0  0  0  0  0  0  0  0
   21.3620    5.1620   30.9300 C   0  0  0  0  0  0  0  0  0  0  0  0
   21.8990    6.4740   30.9910 N   0  0  0  0  0  0  0  0  0  0  0  0
   21.3070    7.6270   31.5520 C   0  0  0  0  0  0  0  0  0  0  0  0
   20.3300    4.8570   31.4850 O   0  0  0  0  0  0  0  0  0  0  0  0
   22.0350    8.7650   31.2320 N   0  0  0  0  0  0  0  0  0  0  0  0
   21.5550    9.9580   31.6460 C   0  0  0  0  0  0  0  0  0  0  0  0
   20.3650   10.1240   32.4150 C   0  0  0  0  0  0  0  0  0  0  0  0
   19.6490    8.9300   32.7520 C   0  0  0  0  0  0  0  0  0  0  0  0
   20.1400    7.6720   32.3080 C   0  0  0  0  0  0  0  0  0  0  0  0
   27.0140    5.4430   29.9770 O   0  0  0  0  0  0  0  0  0  0  0  0
   26.7650    6.7480   29.3950 C   0  0  0  0  0  0  0  0  0  0  0  0
   22.8880    2.1430   31.5880 O   0  0  0  0  0  0  0  0  0  0  0  0
   23.1860    0.8990   32.2730 C   0  0  0  0  0  0  0  0  0  0  0  0
   18.4860    8.9870   33.4770 N   0  0  0  0  0  0  0  0  0  0  0  0
   19.9550   11.4270   32.7700 C   0  0  0  0  0  0  0  0  0  0  0  0
   22.2030   11.0960   31.3090 O   0  0  0  0  0  0  0  0  0  0  0  0
   23.4820   11.0130   30.5740 C   0  0  0  0  0  0  0  0  0  0  0  0
   23.2410   10.7710   29.0990 C   0  0  0  0  0  0  0  0  0  0  0  0
   19.6710   12.5230   33.0220 N   0  0  0  0  0  0  0  0  0  0  0  0
   25.5770    1.8630   32.2210 H   0  0  0  0  0  0  0  0  0  0  0  0
   24.3490    5.7280   29.2930 H   0  0  0  0  0  0  0  0  0  0  0  0
   19.5880    6.7630   32.5520 H   0  0  0  0  0  0  0  0  0  0  0  0
   21.6450    3.2200   30.0490 H   0  0  0  0  0  0  0  0  0  0  0  0
   22.0880    4.6380   28.9830 H   0  0  0  0  0  0  0  0  0  0  0  0
   22.8030    6.6550   30.5110 H   0  0  0  0  0  0  0  0  0  0  0  0
   26.1260    7.3590   30.0690 H   0  0  0  0  0  0  0  0  0  0  0  0
   26.3260    6.6340   28.3820 H   0  0  0  0  0  0  0  0  0  0  0  0
   27.7960    7.1700   29.3370 H   0  0  0  0  0  0  0  0  0  0  0  0
   23.6930    1.1010   33.2400 H   0  0  0  0  0  0  0  0  0  0  0  0
   23.7910    0.2420   31.6120 H   0  0  0  0  0  0  0  0  0  0  0  0
   22.1620    0.4940   32.4350 H   0  0  0  0  0  0  0  0  0  0  0  0
   17.9950    8.1220   33.7730 H   0  0  0  0  0  0  0  0  0  0  0  0
   18.0940    9.8790   33.7810 H   0  0  0  0  0  0  0  0  0  0  0  0
   24.1250   10.2260   31.0310 H   0  0  0  0  0  0  0  0  0  0  0  0
   23.8690   12.0410   30.7740 H   0  0  0  0  0  0  0  0  0  0  0  0
   24.2040   10.8950   28.5450 H   0  0  0  0  0  0  0  0  0  0  0  0
   22.5060   11.4950   28.6830 H   0  0  0  0  0  0  0  0  0  0  0  0
   22.8690    9.7350   28.9140 H   0  0  0  0  0  0  0  0  0  0  0  0
   27.3230    3.4430   31.4690 H   0  0  0  0  0  0  0  0  0  0  0  0
  1  2  1  0  0  0  0
  1  6  2  0  0  0  0
  1 27  1  0  0  0  0
  2  3  2  0  0  0  0
  2 19  1  0  0  0  0
  3  4  1  0  0  0  0
  3  7  1  0  0  0  0
  4  5  2  0  0  0  0
  4 28  1  0  0  0  0
  5  6  1  0  0  0  0
  5 17  1  0  0  0  0
  6 46  1  0  0  0  0
  7  8  1  0  0  0  0
  7 30  1  0  0  0  0
  7 31  1  0  0  0  0
  8  9  1  0  0  0  0
  8 11  2  0  0  0  0
  9 10  1  0  0  0  0
  9 32  1  0  0  0  0
 10 12  1  0  0  0  0
 10 16  2  0  0  0  0
 12 13  2  0  0  0  0
 13 14  1  0  0  0  0
 13 23  1  0  0  0  0
 14 15  2  0  0  0  0
 14 22  1  0  0  0  0
 15 16  1  0  0  0  0
 15 21  1  0  0  0  0
 16 29  1  0  0  0  0
 17 18  1  0  0  0  0
 18 33  1  0  0  0  0
 18 34  1  0  0  0  0
 18 35  1  0  0  0  0
 19 20  1  0  0  0  0
 20 36  1  0  0  0  0
 20 37  1  0  0  0  0
 20 38  1  0  0  0  0
 21 39  1  0  0  0  0
 21 40  1  0  0  0  0
 22 26  3  0  0  0  0
 23 24  1  0  0  0  0
 24 25  1  0  0  0  0
 24 41  1  0  0  0  0
 24 42  1  0  0  0  0
 25 43  1  0  0  0  0
 25 44  1  0  0  0  0
 25 45  1  0  0  0  0
M  END
$$$$
