p38a_2o
 OpenBabel02232411163D
Structure written by MMmdl.
 55 58  0  0  0  0  0  0  0  0999 V2000
   36.3680   36.0120   15.8080 C   0  0  0  0  0  0  0  0  0  0  0  0
   34.5720   34.9980   21.3560 C   0  0  0  0  0  0  0  0  0  0  0  0
   35.7030   35.5330   16.9330 C   0  0  0  0  0  0  0  0  0  0  0  0
   34.0570   39.1240   23.8330 C   0  0  0  0  0  0  0  0  0  0  0  0
   34.7550   37.8710   21.4780 C   0  0  0  0  0  0  0  0  0  0  0  0
   35.1970   37.1860   20.2930 C   0  0  0  0  0  0  0  0  0  0  0  0
   37.6550   36.5250   16.0130 C   0  0  0  0  0  0  0  0  0  0  0  0
   38.2880   36.5400   17.2590 C   0  0  0  0  0  0  0  0  0  0  0  0
   37.5850   36.0880   18.3810 C   0  0  0  0  0  0  0  0  0  0  0  0
   34.3310   37.1250   22.6160 C   0  0  0  0  0  0  0  0  0  0  0  0
   34.7370   39.2870   21.5970 C   0  0  0  0  0  0  0  0  0  0  0  0
   35.1440   35.8350   20.2660 C   0  0  0  0  0  0  0  0  0  0  0  0
   36.2920   35.5860   18.2120 C   0  0  0  0  0  0  0  0  0  0  0  0
   34.4940   34.9980   16.8250 F   0  0  0  0  0  0  0  0  0  0  0  0
   35.5570   34.9840   19.2430 O   0  0  0  0  0  0  0  0  0  0  0  0
   34.4050   39.9260   22.7290 N   0  0  0  0  0  0  0  0  0  0  0  0
   34.3870   33.8030   21.2950 O   0  0  0  0  0  0  0  0  0  0  0  0
   34.2530   35.7190   22.5630 N   0  0  0  0  0  0  0  0  0  0  0  0
   34.0000   37.7440   23.7940 N   0  0  0  0  0  0  0  0  0  0  0  0
   33.6970   39.7600   24.9990 N   0  0  0  0  0  0  0  0  0  0  0  0
   35.9010   36.0120   14.8200 H   0  0  0  0  0  0  0  0  0  0  0  0
   35.5770   37.7890   19.4650 H   0  0  0  0  0  0  0  0  0  0  0  0
   39.3050   36.9270   17.3660 H   0  0  0  0  0  0  0  0  0  0  0  0
   38.0410   36.1560   19.3720 H   0  0  0  0  0  0  0  0  0  0  0  0
   35.0050   39.9120   20.7290 H   0  0  0  0  0  0  0  0  0  0  0  0
   33.8110   40.7890   25.0820 H   0  0  0  0  0  0  0  0  0  0  0  0
   38.2880   37.0570   14.9710 F   0  0  0  0  0  0  0  0  0  0  0  0
   32.3560   39.0400   28.5050 C   0  0  0  0  0  0  0  0  0  0  0  0
   32.4440   39.7040   27.1240 C   0  0  0  0  0  0  0  0  0  0  0  0
   33.5470   39.0200   26.2890 C   0  0  0  0  0  0  0  0  0  0  0  0
   34.8840   39.0190   27.0610 C   0  0  0  0  0  0  0  0  0  0  0  0
   34.6840   38.3920   28.4460 C   0  0  0  0  0  0  0  0  0  0  0  0
   33.6300   39.0490   29.1860 O   0  0  0  0  0  0  0  0  0  0  0  0
   31.9970   37.9890   28.4130 H   0  0  0  0  0  0  0  0  0  0  0  0
   31.7130   39.6330   29.1940 H   0  0  0  0  0  0  0  0  0  0  0  0
   32.6770   40.7890   27.2450 H   0  0  0  0  0  0  0  0  0  0  0  0
   31.4640   39.6100   26.5980 H   0  0  0  0  0  0  0  0  0  0  0  0
   33.2360   37.9620   26.0670 H   0  0  0  0  0  0  0  0  0  0  0  0
   35.6450   38.4310   26.4950 H   0  0  0  0  0  0  0  0  0  0  0  0
   35.2560   40.0670   27.1660 H   0  0  0  0  0  0  0  0  0  0  0  0
   34.4400   37.3080   28.3590 H   0  0  0  0  0  0  0  0  0  0  0  0
   35.5720   38.5650   29.0980 H   0  0  0  0  0  0  0  0  0  0  0  0
   33.7240   34.9620   23.7550 C   0  0  0  0  0  0  0  0  0  0  0  0
   34.2090   33.9470   23.7510 H   0  0  0  0  0  0  0  0  0  0  0  0
   34.0360   35.5230   24.6830 H   0  0  0  0  0  0  0  0  0  0  0  0
   32.2010   34.8410   23.6830 C   0  0  0  0  0  0  0  0  0  0  0  0
   31.7710   35.8600   23.4600 H   0  0  0  0  0  0  0  0  0  0  0  0
   31.9110   34.1950   22.8100 H   0  0  0  0  0  0  0  0  0  0  0  0
   31.4430   34.2130   25.1580 S   0  0  0  0  0  0  0  0  0  0  0  0
   32.4570   33.7810   26.1430 O   0  0  0  0  0  0  0  0  0  0  0  0
   30.5630   33.0750   24.8060 O   0  0  0  0  0  0  0  0  0  0  0  0
   30.5180   35.5550   25.7470 C   0  0  0  0  0  0  0  0  0  0  0  0
   29.7110   35.8680   25.0320 H   0  0  0  0  0  0  0  0  0  0  0  0
   29.9980   35.3370   26.7190 H   0  0  0  0  0  0  0  0  0  0  0  0
   31.1460   36.4650   25.9390 H   0  0  0  0  0  0  0  0  0  0  0  0
  1  3  2  0  0  0  0
  1  7  1  0  0  0  0
  1 21  1  0  0  0  0
  2 12  1  0  0  0  0
  2 17  2  0  0  0  0
  2 18  1  0  0  0  0
  3 13  1  0  0  0  0
  3 14  1  0  0  0  0
  4 16  2  0  0  0  0
  4 19  1  0  0  0  0
  4 20  1  0  0  0  0
  5  6  1  0  0  0  0
  5 10  1  0  0  0  0
  5 11  2  0  0  0  0
  6 12  2  0  0  0  0
  6 22  1  0  0  0  0
  7  8  2  0  0  0  0
  7 27  1  0  0  0  0
  8  9  1  0  0  0  0
  8 23  1  0  0  0  0
  9 13  2  0  0  0  0
  9 24  1  0  0  0  0
 10 18  1  0  0  0  0
 10 19  2  0  0  0  0
 11 16  1  0  0  0  0
 11 25  1  0  0  0  0
 12 15  1  0  0  0  0
 13 15  1  0  0  0  0
 18 43  1  0  0  0  0
 20 26  1  0  0  0  0
 20 30  1  0  0  0  0
 28 29  1  0  0  0  0
 28 33  1  0  0  0  0
 28 34  1  0  0  0  0
 28 35  1  0  0  0  0
 29 30  1  0  0  0  0
 29 36  1  0  0  0  0
 29 37  1  0  0  0  0
 30 31  1  0  0  0  0
 30 38  1  0  0  0  0
 31 32  1  0  0  0  0
 31 39  1  0  0  0  0
 31 40  1  0  0  0  0
 32 33  1  0  0  0  0
 32 41  1  0  0  0  0
 32 42  1  0  0  0  0
 43 44  1  0  0  0  0
 43 45  1  0  0  0  0
 43 46  1  0  0  0  0
 46 47  1  0  0  0  0
 46 48  1  0  0  0  0
 46 49  1  0  0  0  0
 49 50  2  0  0  0  0
 49 51  2  0  0  0  0
 49 52  1  0  0  0  0
 52 53  1  0  0  0  0
 52 54  1  0  0  0  0
 52 55  1  0  0  0  0
M  END
$$$$
