18658-1 flip
                    3D
 Schrodinger Suite 2022-3.
 47 48  0  0  1  0  0  0  0  0999 V2000
   25.2940    2.7320   31.6100 C   0  0  0  0  0  0  0  0  0  0  0  0
   23.9620    2.9560   31.2230 C   0  0  0  0  0  0  0  0  0  0  0  0
   23.6020    4.0570   30.4110 C   0  0  0  0  0  0  0  0  0  0  0  0
   24.6130    4.9220   29.9710 C   0  0  0  0  0  0  0  0  0  0  0  0
   25.9360    4.7030   30.3750 C   0  0  0  0  0  0  0  0  0  0  0  0
   26.2860    3.6120   31.1950 C   0  0  0  0  0  0  0  0  0  0  0  0
   22.1690    4.2490   30.0050 C   0  0  0  0  0  0  0  0  0  0  0  0
   21.3700    5.1780   30.9070 C   0  0  0  0  0  0  0  0  0  0  0  0
   21.8930    6.4980   30.9520 N   0  0  0  0  0  0  0  0  0  0  0  0
   21.3060    7.6460   31.5280 C   0  0  0  0  0  0  0  0  0  0  0  0
   20.3450    4.8660   31.4700 O   0  0  0  0  0  0  0  0  0  0  0  0
   22.0450    8.7850   31.2310 N   0  0  0  0  0  0  0  0  0  0  0  0
   21.5700    9.9710   31.6720 C   0  0  0  0  0  0  0  0  0  0  0  0
   20.3670   10.1370   32.4180 C   0  0  0  0  0  0  0  0  0  0  0  0
   19.6470    8.9410   32.7390 C   0  0  0  0  0  0  0  0  0  0  0  0
   20.1360    7.6870   32.2790 C   0  0  0  0  0  0  0  0  0  0  0  0
   27.0320    5.4590   30.0050 O   0  0  0  0  0  0  0  0  0  0  0  0
   26.7880    6.7640   29.4220 C   0  0  0  0  0  0  0  0  0  0  0  0
   22.8890    2.1620   31.5790 O   0  0  0  0  0  0  0  0  0  0  0  0
   23.1820    0.9150   32.2610 C   0  0  0  0  0  0  0  0  0  0  0  0
   18.4860    8.9920   33.4670 N   0  0  0  0  0  0  0  0  0  0  0  0
   19.9520   11.4400   32.7640 C   0  0  0  0  0  0  0  0  0  0  0  0
   22.2470   11.1080   31.3840 O   0  0  0  0  0  0  0  0  0  0  0  0
   23.5710   11.0110   30.7560 C   0  0  0  0  0  0  0  0  0  0  0  0
   23.4640   10.9050   29.2380 C   0  0  0  0  0  0  0  0  0  0  0  0
   19.6670   12.5400   33.0010 N   0  0  0  0  0  0  0  0  0  0  0  0
   25.5720    1.8770   32.2320 H   0  0  0  0  0  0  0  0  0  0  0  0
   24.3730    5.7490   29.3020 H   0  0  0  0  0  0  0  0  0  0  0  0
   19.5810    6.7760   32.5080 H   0  0  0  0  0  0  0  0  0  0  0  0
   21.6620    3.2400   30.0200 H   0  0  0  0  0  0  0  0  0  0  0  0
   22.1190    4.6640   28.9650 H   0  0  0  0  0  0  0  0  0  0  0  0
   22.7940    6.6820   30.4690 H   0  0  0  0  0  0  0  0  0  0  0  0
   26.1440    7.3750   30.0920 H   0  0  0  0  0  0  0  0  0  0  0  0
   27.8190    7.1860   29.3690 H   0  0  0  0  0  0  0  0  0  0  0  0
   26.3540    6.6520   28.4060 H   0  0  0  0  0  0  0  0  0  0  0  0
   22.1550    0.5130   32.4180 H   0  0  0  0  0  0  0  0  0  0  0  0
   23.7880    0.2590   31.6010 H   0  0  0  0  0  0  0  0  0  0  0  0
   23.6840    1.1120   33.2320 H   0  0  0  0  0  0  0  0  0  0  0  0
   17.9950    8.1250   33.7560 H   0  0  0  0  0  0  0  0  0  0  0  0
   18.0950    9.8810   33.7780 H   0  0  0  0  0  0  0  0  0  0  0  0
   24.1430   10.1480   31.1760 H   0  0  0  0  0  0  0  0  0  0  0  0
   24.0030   11.9950   31.0640 H   0  0  0  0  0  0  0  0  0  0  0  0
   23.1270   12.2320   28.7690 O   0  0  0  0  0  0  0  0  0  0  0  0
   24.4570   10.6180   28.8040 H   0  0  0  0  0  0  0  0  0  0  0  0
   22.6730   10.1900   28.9160 H   0  0  0  0  0  0  0  0  0  0  0  0
   27.3260    3.4540   31.4960 H   0  0  0  0  0  0  0  0  0  0  0  0
   22.9550   12.1560   27.7730 H   0  0  0  0  0  0  0  0  0  0  0  0
  1  2  1  0  0  0  0
  1  6  2  0  0  0  0
  1 27  1  0  0  0  0
  2  3  2  0  0  0  0
  2 19  1  0  0  0  0
  3  4  1  0  0  0  0
  3  7  1  0  0  0  0
  4  5  2  0  0  0  0
  4 28  1  0  0  0  0
  5  6  1  0  0  0  0
  5 17  1  0  0  0  0
  6 46  1  0  0  0  0
  7  8  1  0  0  0  0
  7 30  1  0  0  0  0
  7 31  1  0  0  0  0
  8  9  1  0  0  0  0
  8 11  2  0  0  0  0
  9 10  1  0  0  0  0
  9 32  1  0  0  0  0
 10 12  1  0  0  0  0
 10 16  2  0  0  0  0
 12 13  2  0  0  0  0
 13 14  1  0  0  0  0
 13 23  1  0  0  0  0
 14 15  2  0  0  0  0
 14 22  1  0  0  0  0
 15 16  1  0  0  0  0
 15 21  1  0  0  0  0
 16 29  1  0  0  0  0
 17 18  1  0  0  0  0
 18 33  1  0  0  0  0
 18 34  1  0  0  0  0
 18 35  1  0  0  0  0
 19 20  1  0  0  0  0
 20 36  1  0  0  0  0
 20 37  1  0  0  0  0
 20 38  1  0  0  0  0
 21 39  1  0  0  0  0
 21 40  1  0  0  0  0
 22 26  3  0  0  0  0
 23 24  1  0  0  0  0
 24 25  1  0  0  0  0
 24 41  1  0  0  0  0
 24 42  1  0  0  0  0
 25 43  1  0  0  0  0
 25 44  1  0  0  0  0
 25 45  1  0  0  0  0
 43 47  1  0  0  0  0
M  END
$$$$
