p38a_2x
 OpenBabel02232411163D
Structure written by MMmdl.
 43 46  0  0  1  0  0  0  0  0999 V2000
   38.2920   36.5340   17.1650 C   0  0  0  0  0  0  0  0  0  0  0  0
   34.4730   35.0880   21.1970 C   0  0  0  0  0  0  0  0  0  0  0  0
   37.5070   36.0740   18.2190 C   0  0  0  0  0  0  0  0  0  0  0  0
   33.8650   39.1800   23.7030 C   0  0  0  0  0  0  0  0  0  0  0  0
   34.6260   37.9600   21.3510 C   0  0  0  0  0  0  0  0  0  0  0  0
   35.0640   37.2940   20.1550 C   0  0  0  0  0  0  0  0  0  0  0  0
   37.6460   36.6900   15.9310 C   0  0  0  0  0  0  0  0  0  0  0  0
   36.3000   36.3830   15.7210 C   0  0  0  0  0  0  0  0  0  0  0  0
   35.5370   35.9080   16.7930 C   0  0  0  0  0  0  0  0  0  0  0  0
   34.1540   37.2030   22.4640 C   0  0  0  0  0  0  0  0  0  0  0  0
   34.6490   39.3730   21.4980 C   0  0  0  0  0  0  0  0  0  0  0  0
   35.0170   35.9430   20.1090 C   0  0  0  0  0  0  0  0  0  0  0  0
   36.1470   35.7440   18.0390 C   0  0  0  0  0  0  0  0  0  0  0  0
   33.5330   35.0400   23.5390 C   0  0  0  0  0  0  0  0  0  0  0  0
   38.0350   35.9430   19.4290 F   0  0  0  0  0  0  0  0  0  0  0  0
   35.4290   35.1160   19.0660 O   0  0  0  0  0  0  0  0  0  0  0  0
   34.2920   39.9920   22.6310 N   0  0  0  0  0  0  0  0  0  0  0  0
   34.3570   33.8820   21.1520 O   0  0  0  0  0  0  0  0  0  0  0  0
   34.0680   35.8050   22.3770 N   0  0  0  0  0  0  0  0  0  0  0  0
   33.7740   37.8070   23.6400 N   0  0  0  0  0  0  0  0  0  0  0  0
   33.5820   39.8480   24.8780 N   0  0  0  0  0  0  0  0  0  0  0  0
   39.3440   36.8000   17.3020 H   0  0  0  0  0  0  0  0  0  0  0  0
   35.4290   37.9070   19.3280 H   0  0  0  0  0  0  0  0  0  0  0  0
   35.8320   36.5250   14.7440 H   0  0  0  0  0  0  0  0  0  0  0  0
   34.4740   35.6850   16.6490 H   0  0  0  0  0  0  0  0  0  0  0  0
   34.9590   40.0070   20.6520 H   0  0  0  0  0  0  0  0  0  0  0  0
   34.1740   35.2210   24.4430 H   0  0  0  0  0  0  0  0  0  0  0  0
   32.4870   35.3790   23.7660 H   0  0  0  0  0  0  0  0  0  0  0  0
   33.5210   33.9420   23.3090 H   0  0  0  0  0  0  0  0  0  0  0  0
   33.6450   40.8880   24.8720 H   0  0  0  0  0  0  0  0  0  0  0  0
   38.3440   37.1960   14.9170 F   0  0  0  0  0  0  0  0  0  0  0  0
   32.5140   37.4370   27.4580 O   0  0  0  0  0  0  0  0  0  0  0  0
   31.3210   37.4650   26.6190 C   0  0  0  0  0  0  0  0  0  0  0  0
   31.4470   38.6520   25.6510 C   0  0  0  0  0  0  0  0  0  0  0  0
   32.7890   39.3270   26.0180 C   0  0  1  0  0  0  0  0  0  0  0  0
   33.5430   38.2570   26.8520 C   0  0  0  0  0  0  0  0  0  0  0  0
   30.4810   37.5810   27.3370 H   0  0  0  0  0  0  0  0  0  0  0  0
   31.2780   36.4910   26.0840 H   0  0  0  0  0  0  0  0  0  0  0  0
   31.4400   38.2920   24.5970 H   0  0  0  0  0  0  0  0  0  0  0  0
   30.6040   39.3650   25.7700 H   0  0  0  0  0  0  0  0  0  0  0  0
   32.5880   40.2320   26.6630 H   0  0  0  0  0  0  0  0  0  0  0  0
   34.0980   38.6970   27.7080 H   0  0  0  0  0  0  0  0  0  0  0  0
   34.1840   37.6000   26.2250 H   0  0  0  0  0  0  0  0  0  0  0  0
  1  3  2  0  0  0  0
  1  7  1  0  0  0  0
  1 22  1  0  0  0  0
  2 12  1  0  0  0  0
  2 18  2  0  0  0  0
  2 19  1  0  0  0  0
  3 13  1  0  0  0  0
  3 15  1  0  0  0  0
  4 17  2  0  0  0  0
  4 20  1  0  0  0  0
  4 21  1  0  0  0  0
  5  6  1  0  0  0  0
  5 10  1  0  0  0  0
  5 11  2  0  0  0  0
  6 12  2  0  0  0  0
  6 23  1  0  0  0  0
  7  8  2  0  0  0  0
  7 31  1  0  0  0  0
  8  9  1  0  0  0  0
  8 24  1  0  0  0  0
  9 13  2  0  0  0  0
  9 25  1  0  0  0  0
 10 19  1  0  0  0  0
 10 20  2  0  0  0  0
 11 17  1  0  0  0  0
 11 26  1  0  0  0  0
 12 16  1  0  0  0  0
 13 16  1  0  0  0  0
 14 19  1  0  0  0  0
 14 27  1  0  0  0  0
 14 28  1  0  0  0  0
 14 29  1  0  0  0  0
 21 30  1  0  0  0  0
 21 35  1  0  0  0  0
 32 33  1  0  0  0  0
 32 36  1  0  0  0  0
 33 34  1  0  0  0  0
 33 37  1  0  0  0  0
 33 38  1  0  0  0  0
 34 35  1  0  0  0  0
 34 39  1  0  0  0  0
 34 40  1  0  0  0  0
 35 36  1  0  0  0  0
 35 41  1  1  0  0  0
 36 42  1  0  0  0  0
 36 43  1  0  0  0  0
M  END
$$$$
