p38a_2n
 OpenBabel02232411163D
Structure written by MMmdl.
 53 56  0  0  0  0  0  0  0  0999 V2000
   38.3310   36.5660   17.1520 C   0  0  0  0  0  0  0  0  0  0  0  0
   34.3740   35.0940   21.1230 C   0  0  0  0  0  0  0  0  0  0  0  0
   37.5630   36.1020   18.2160 C   0  0  0  0  0  0  0  0  0  0  0  0
   33.8260   39.1480   23.7090 C   0  0  0  0  0  0  0  0  0  0  0  0
   34.6350   37.9460   21.3620 C   0  0  0  0  0  0  0  0  0  0  0  0
   35.1360   37.2920   20.1840 C   0  0  0  0  0  0  0  0  0  0  0  0
   37.6730   36.7070   15.9230 C   0  0  0  0  0  0  0  0  0  0  0  0
   36.3290   36.3820   15.7260 C   0  0  0  0  0  0  0  0  0  0  0  0
   35.5820   35.9030   16.8080 C   0  0  0  0  0  0  0  0  0  0  0  0
   34.0510   37.1890   22.4200 C   0  0  0  0  0  0  0  0  0  0  0  0
   34.7020   39.3540   21.5390 C   0  0  0  0  0  0  0  0  0  0  0  0
   35.0440   35.9460   20.1040 C   0  0  0  0  0  0  0  0  0  0  0  0
   36.2060   35.7530   18.0490 C   0  0  0  0  0  0  0  0  0  0  0  0
   38.1030   35.9840   19.4220 F   0  0  0  0  0  0  0  0  0  0  0  0
   35.5110   35.1170   19.0860 O   0  0  0  0  0  0  0  0  0  0  0  0
   34.3190   39.9650   22.6660 N   0  0  0  0  0  0  0  0  0  0  0  0
   34.2400   33.8920   21.0430 O   0  0  0  0  0  0  0  0  0  0  0  0
   33.8510   35.8060   22.2610 N   0  0  0  0  0  0  0  0  0  0  0  0
   33.6700   37.7800   23.6020 N   0  0  0  0  0  0  0  0  0  0  0  0
   33.4640   39.8190   24.8530 N   0  0  0  0  0  0  0  0  0  0  0  0
   39.3810   36.8440   17.2790 H   0  0  0  0  0  0  0  0  0  0  0  0
   35.5850   37.9090   19.4030 H   0  0  0  0  0  0  0  0  0  0  0  0
   35.8500   36.5130   14.7530 H   0  0  0  0  0  0  0  0  0  0  0  0
   34.5210   35.6680   16.6760 H   0  0  0  0  0  0  0  0  0  0  0  0
   35.0770   39.9900   20.7220 H   0  0  0  0  0  0  0  0  0  0  0  0
   33.6460   40.8420   24.9030 H   0  0  0  0  0  0  0  0  0  0  0  0
   38.3550   37.2160   14.8990 F   0  0  0  0  0  0  0  0  0  0  0  0
   33.7360   37.7560   28.1000 C   0  0  0  0  0  0  0  0  0  0  0  0
   34.1970   38.3700   26.7720 C   0  0  0  0  0  0  0  0  0  0  0  0
   33.0670   39.2260   26.1640 C   0  0  0  0  0  0  0  0  0  0  0  0
   31.7570   38.4230   26.0670 C   0  0  0  0  0  0  0  0  0  0  0  0
   31.4110   37.8390   27.4430 C   0  0  0  0  0  0  0  0  0  0  0  0
   32.4920   37.0330   27.9650 O   0  0  0  0  0  0  0  0  0  0  0  0
   33.6120   38.5440   28.8790 H   0  0  0  0  0  0  0  0  0  0  0  0
   34.4370   36.9560   28.4350 H   0  0  0  0  0  0  0  0  0  0  0  0
   34.4780   37.5570   26.0620 H   0  0  0  0  0  0  0  0  0  0  0  0
   35.0960   39.0070   26.9540 H   0  0  0  0  0  0  0  0  0  0  0  0
   32.8930   40.1230   26.8330 H   0  0  0  0  0  0  0  0  0  0  0  0
   30.9300   39.0880   25.7220 H   0  0  0  0  0  0  0  0  0  0  0  0
   31.8720   37.5920   25.3290 H   0  0  0  0  0  0  0  0  0  0  0  0
   31.1760   38.6450   28.1750 H   0  0  0  0  0  0  0  0  0  0  0  0
   30.5800   37.1000   27.3700 H   0  0  0  0  0  0  0  0  0  0  0  0
   33.0160   35.0330   23.2420 C   0  0  0  0  0  0  0  0  0  0  0  0
   32.4310   35.7560   23.8760 H   0  0  0  0  0  0  0  0  0  0  0  0
   32.2790   34.4270   22.6420 H   0  0  0  0  0  0  0  0  0  0  0  0
   33.8450   34.0960   24.1280 C   0  0  0  0  0  0  0  0  0  0  0  0
   33.1670   33.2710   24.4800 H   0  0  0  0  0  0  0  0  0  0  0  0
   34.6760   33.6280   23.5500 H   0  0  0  0  0  0  0  0  0  0  0  0
   34.4130   34.7970   25.3640 C   0  0  0  0  0  0  0  0  0  0  0  0
   35.3360   35.3730   25.1410 H   0  0  0  0  0  0  0  0  0  0  0  0
   33.6530   35.4320   25.8760 H   0  0  0  0  0  0  0  0  0  0  0  0
   34.7430   33.7120   26.2660 O   0  0  0  0  0  0  0  0  0  0  0  0
   35.3560   34.0740   26.9770 H   0  0  0  0  0  0  0  0  0  0  0  0
  1  3  2  0  0  0  0
  1  7  1  0  0  0  0
  1 21  1  0  0  0  0
  2 12  1  0  0  0  0
  2 17  2  0  0  0  0
  2 18  1  0  0  0  0
  3 13  1  0  0  0  0
  3 14  1  0  0  0  0
  4 16  2  0  0  0  0
  4 19  1  0  0  0  0
  4 20  1  0  0  0  0
  5  6  1  0  0  0  0
  5 10  1  0  0  0  0
  5 11  2  0  0  0  0
  6 12  2  0  0  0  0
  6 22  1  0  0  0  0
  7  8  2  0  0  0  0
  7 27  1  0  0  0  0
  8  9  1  0  0  0  0
  8 23  1  0  0  0  0
  9 13  2  0  0  0  0
  9 24  1  0  0  0  0
 10 18  1  0  0  0  0
 10 19  2  0  0  0  0
 11 16  1  0  0  0  0
 11 25  1  0  0  0  0
 12 15  1  0  0  0  0
 13 15  1  0  0  0  0
 18 43  1  0  0  0  0
 20 26  1  0  0  0  0
 20 30  1  0  0  0  0
 28 29  1  0  0  0  0
 28 33  1  0  0  0  0
 28 34  1  0  0  0  0
 28 35  1  0  0  0  0
 29 30  1  0  0  0  0
 29 36  1  0  0  0  0
 29 37  1  0  0  0  0
 30 31  1  0  0  0  0
 30 38  1  0  0  0  0
 31 32  1  0  0  0  0
 31 39  1  0  0  0  0
 31 40  1  0  0  0  0
 32 33  1  0  0  0  0
 32 41  1  0  0  0  0
 32 42  1  0  0  0  0
 43 44  1  0  0  0  0
 43 45  1  0  0  0  0
 43 46  1  0  0  0  0
 46 47  1  0  0  0  0
 46 48  1  0  0  0  0
 46 49  1  0  0  0  0
 49 50  1  0  0  0  0
 49 51  1  0  0  0  0
 49 52  1  0  0  0  0
 52 53  1  0  0  0  0
M  END
$$$$
