1h1s
 OpenBabel02232411153D
Structure written by MMmdl.
 50 53  0  0  0  0  0  0  0  0999 V2000
    1.7880   28.8800    6.8030 C   0  0  0  0  0  0  0  0  0  0  0  0
   -1.6560   31.4950    8.0150 C   0  0  0  0  0  0  0  0  0  0  0  0
   -0.1760   26.0030    8.9150 C   0  0  0  0  0  0  0  0  0  0  0  0
   -0.9160   25.3020   10.0620 C   0  0  0  0  0  0  0  0  0  0  0  0
   -0.7030   23.7820    9.8770 C   0  0  0  0  0  0  0  0  0  0  0  0
   -1.2980   22.9850   11.0460 C   0  0  0  0  0  0  0  0  0  0  0  0
   -0.7410   23.4720   12.3930 C   0  0  0  0  0  0  0  0  0  0  0  0
   -0.9950   24.9750   12.5840 C   0  0  0  0  0  0  0  0  0  0  0  0
   -0.3920   25.7870   11.4280 C   0  0  0  0  0  0  0  0  0  0  0  0
    4.2850   25.3600    7.8800 C   0  0  0  0  0  0  0  0  0  0  0  0
    5.1760   24.9010    6.8980 C   0  0  0  0  0  0  0  0  0  0  0  0
    5.3790   25.6820    5.7530 C   0  0  0  0  0  0  0  0  0  0  0  0
    4.6650   26.8610    5.5610 C   0  0  0  0  0  0  0  0  0  0  0  0
    1.0740   27.9260    7.5170 N   0  0  0  0  0  0  0  0  0  0  0  0
   -0.1110   28.2590    8.0920 C   0  0  0  0  0  0  0  0  0  0  0  0
   -0.7850   27.3570    8.8210 O   0  0  0  0  0  0  0  0  0  0  0  0
   -0.6260   29.5740    7.9360 C   0  0  0  0  0  0  0  0  0  0  0  0
   -1.7640   30.2270    8.4210 N   0  0  0  0  0  0  0  0  0  0  0  0
   -0.4500   31.7240    7.2630 N   0  0  0  0  0  0  0  0  0  0  0  0
    0.2050   30.5010    7.1850 C   0  0  0  0  0  0  0  0  0  0  0  0
    1.3980   30.1850    6.5780 N   0  0  0  0  0  0  0  0  0  0  0  0
    3.0040   28.4770    6.2420 N   0  0  0  0  0  0  0  0  0  0  0  0
    3.7270   27.2860    6.5290 C   0  0  0  0  0  0  0  0  0  0  0  0
    3.5820   26.5480    7.7190 C   0  0  0  0  0  0  0  0  0  0  0  0
   -2.3530   32.3020    8.2190 H   0  0  0  0  0  0  0  0  0  0  0  0
    0.9100   26.1030    9.1390 H   0  0  0  0  0  0  0  0  0  0  0  0
   -0.3560   25.5250    7.9320 H   0  0  0  0  0  0  0  0  0  0  0  0
   -2.0080   25.5260   10.0050 H   0  0  0  0  0  0  0  0  0  0  0  0
   -1.1860   23.4520    8.9300 H   0  0  0  0  0  0  0  0  0  0  0  0
    0.3930   23.5650    9.8170 H   0  0  0  0  0  0  0  0  0  0  0  0
   -2.4030   23.1050   11.0500 H   0  0  0  0  0  0  0  0  0  0  0  0
   -1.0540   21.9040   10.9190 H   0  0  0  0  0  0  0  0  0  0  0  0
   -1.2220   22.9050   13.2210 H   0  0  0  0  0  0  0  0  0  0  0  0
    0.3580   23.2830   12.4150 H   0  0  0  0  0  0  0  0  0  0  0  0
   -2.0910   25.1630   12.6530 H   0  0  0  0  0  0  0  0  0  0  0  0
   -0.5240   25.3070   13.5370 H   0  0  0  0  0  0  0  0  0  0  0  0
    0.7190   25.6790   11.4660 H   0  0  0  0  0  0  0  0  0  0  0  0
   -0.6470   26.8620   11.5600 H   0  0  0  0  0  0  0  0  0  0  0  0
    4.1060   24.7900    8.7980 H   0  0  0  0  0  0  0  0  0  0  0  0
    6.0970   25.3830    4.9780 H   0  0  0  0  0  0  0  0  0  0  0  0
    4.8270   27.4480    4.6550 H   0  0  0  0  0  0  0  0  0  0  0  0
   -0.1780   32.6040    6.7990 H   0  0  0  0  0  0  0  0  0  0  0  0
    3.4940   29.1370    5.5900 H   0  0  0  0  0  0  0  0  0  0  0  0
    2.9140   26.8800    8.5150 H   0  0  0  0  0  0  0  0  0  0  0  0
    6.0220   23.4110    7.0940 S   0  0  0  0  0  0  0  0  0  0  0  0
    6.0150   22.6380    5.8420 O   0  0  0  0  0  0  0  0  0  0  0  0
    7.3490   23.6920    7.6550 O   0  0  0  0  0  0  0  0  0  0  0  0
    5.1650   22.5020    8.2350 N   0  0  0  0  0  0  0  0  0  0  0  0
    4.2650   22.0580    8.0100 H   0  0  0  0  0  0  0  0  0  0  0  0
    5.2050   22.8030    9.2490 H   0  0  0  0  0  0  0  0  0  0  0  0
  1 14  2  0  0  0  0
  1 21  1  0  0  0  0
  1 22  1  0  0  0  0
  2 18  2  0  0  0  0
  2 19  1  0  0  0  0
  2 25  1  0  0  0  0
  3  4  1  0  0  0  0
  3 16  1  0  0  0  0
  3 26  1  0  0  0  0
  3 27  1  0  0  0  0
  4  5  1  0  0  0  0
  4  9  1  0  0  0  0
  4 28  1  0  0  0  0
  5  6  1  0  0  0  0
  5 29  1  0  0  0  0
  5 30  1  0  0  0  0
  6  7  1  0  0  0  0
  6 31  1  0  0  0  0
  6 32  1  0  0  0  0
  7  8  1  0  0  0  0
  7 33  1  0  0  0  0
  7 34  1  0  0  0  0
  8  9  1  0  0  0  0
  8 35  1  0  0  0  0
  8 36  1  0  0  0  0
  9 37  1  0  0  0  0
  9 38  1  0  0  0  0
 10 11  2  0  0  0  0
 10 24  1  0  0  0  0
 10 39  1  0  0  0  0
 11 12  1  0  0  0  0
 11 45  1  0  0  0  0
 12 13  2  0  0  0  0
 12 40  1  0  0  0  0
 13 23  1  0  0  0  0
 13 41  1  0  0  0  0
 14 15  1  0  0  0  0
 15 16  1  0  0  0  0
 15 17  2  0  0  0  0
 17 18  1  0  0  0  0
 17 20  1  0  0  0  0
 19 20  1  0  0  0  0
 19 42  1  0  0  0  0
 20 21  2  0  0  0  0
 22 23  1  0  0  0  0
 22 43  1  0  0  0  0
 23 24  2  0  0  0  0
 24 44  1  0  0  0  0
 45 46  2  0  0  0  0
 45 47  2  0  0  0  0
 45 48  1  0  0  0  0
 48 49  1  0  0  0  0
 48 50  1  0  0  0  0
M  END
$$$$
