30 flip
                    3D
 Schrodinger Suite 2022-3.
 41 43  0  0  1  0  0  0  0  0999 V2000
    3.3510  -48.2850    7.1920 O   0  0  0  0  0  0  0  0  0  0  0  0
    2.9480  -49.2170    6.4830 C   0  0  0  0  0  0  0  0  0  0  0  0
    3.6470  -49.9990    5.8100 O   0  5  0  0  0  0  0  0  0  0  0  0
    1.4330  -49.4970    6.4260 C   0  0  0  0  0  0  0  0  0  0  0  0
   -0.4270  -50.8250    6.5800 C   0  0  0  0  0  0  0  0  0  0  0  0
   -1.3450  -51.8680    6.7860 C   0  0  0  0  0  0  0  0  0  0  0  0
   -2.6780  -51.6110    6.5000 C   0  0  0  0  0  0  0  0  0  0  0  0
   -3.0950  -50.3470    6.0190 C   0  0  0  0  0  0  0  0  0  0  0  0
   -2.1910  -49.3130    5.8140 C   0  0  0  0  0  0  0  0  0  0  0  0
   -0.8330  -49.5280    6.0970 C   0  0  0  0  0  0  0  0  0  0  0  0
    0.3590  -48.7090    6.0250 C   0  0  0  0  0  0  0  0  0  0  0  0
    0.3600  -47.2860    5.5930 C   0  0  0  0  0  0  0  0  0  0  0  0
    0.2500  -46.3000    6.7710 C   0  0  0  0  0  0  0  0  0  0  0  0
   -1.1070  -46.3260    7.4750 C   0  0  0  0  0  0  0  0  0  0  0  0
   -1.9990  -45.6600    6.5080 O   0  0  0  0  0  0  0  0  0  0  0  0
   -3.2770  -45.3650    6.8780 C   0  0  0  0  0  0  0  0  0  0  0  0
   -3.9060  -45.8020    8.0520 C   0  0  0  0  0  0  0  0  0  0  0  0
   -5.2370  -45.4160    8.2920 C   0  0  0  0  0  0  0  0  0  0  0  0
   -5.9090  -44.5960    7.3760 C   0  0  0  0  0  0  0  0  0  0  0  0
   -5.2640  -44.1750    6.2050 C   0  0  0  0  0  0  0  0  0  0  0  0
   -3.9540  -44.5510    5.9380 C   0  0  0  0  0  0  0  0  0  0  0  0
   -1.0310  -52.8420    7.1590 H   0  0  0  0  0  0  0  0  0  0  0  0
   -3.4270  -52.3900    6.6500 H   0  0  0  0  0  0  0  0  0  0  0  0
   -4.1540  -50.1930    5.8080 H   0  0  0  0  0  0  0  0  0  0  0  0
   -2.5420  -48.3490    5.4420 H   0  0  0  0  0  0  0  0  0  0  0  0
   -0.5150  -47.1130    4.9130 H   0  0  0  0  0  0  0  0  0  0  0  0
    1.2940  -47.0480    5.0280 H   0  0  0  0  0  0  0  0  0  0  0  0
    0.4080  -45.2640    6.3870 H   0  0  0  0  0  0  0  0  0  0  0  0
    1.0340  -46.5380    7.5280 H   0  0  0  0  0  0  0  0  0  0  0  0
   -1.1050  -45.7100    8.3990 H   0  0  0  0  0  0  0  0  0  0  0  0
   -1.5030  -47.3500    7.6350 H   0  0  0  0  0  0  0  0  0  0  0  0
   -3.4090  -46.4480    8.7690 H   0  0  0  0  0  0  0  0  0  0  0  0
   -3.4550  -44.2330    5.0280 H   0  0  0  0  0  0  0  0  0  0  0  0
    0.9630  -50.7780    6.7770 N   0  0  0  0  0  0  0  0  0  0  0  0
    1.5070  -51.5710    7.0970 H   0  0  0  0  0  0  0  0  0  0  0  0
   -5.8040  -43.5450    5.4950 H   0  0  0  0  0  0  0  0  0  0  0  0
   -6.9370  -44.2940    7.5600 H   0  0  0  0  0  0  0  0  0  0  0  0
   -5.9290  -45.8910    9.5330 C   0  0  0  0  0  0  0  0  0  0  0  0
   -7.0190  -45.6570    9.5080 H   0  0  0  0  0  0  0  0  0  0  0  0
   -5.8150  -46.9970    9.6440 H   0  0  0  0  0  0  0  0  0  0  0  0
   -5.4910  -45.3970   10.4270 H   0  0  0  0  0  0  0  0  0  0  0  0
  1  2  2  0  0  0  0
  2  3  1  0  0  0  0
  2  4  1  0  0  0  0
  4 11  2  0  0  0  0
  4 34  1  0  0  0  0
  5  6  1  0  0  0  0
  5 10  2  0  0  0  0
  5 34  1  0  0  0  0
  6  7  2  0  0  0  0
  6 22  1  0  0  0  0
  7  8  1  0  0  0  0
  7 23  1  0  0  0  0
  8  9  2  0  0  0  0
  8 24  1  0  0  0  0
  9 10  1  0  0  0  0
  9 25  1  0  0  0  0
 10 11  1  0  0  0  0
 11 12  1  0  0  0  0
 12 26  1  0  0  0  0
 12 27  1  0  0  0  0
 12 13  1  0  0  0  0
 13 14  1  0  0  0  0
 13 28  1  0  0  0  0
 13 29  1  0  0  0  0
 14 15  1  0  0  0  0
 14 30  1  0  0  0  0
 14 31  1  0  0  0  0
 15 16  1  0  0  0  0
 16 17  1  0  0  0  0
 16 21  2  0  0  0  0
 17 18  2  0  0  0  0
 17 32  1  0  0  0  0
 18 19  1  0  0  0  0
 18 38  1  0  0  0  0
 19 20  2  0  0  0  0
 19 37  1  0  0  0  0
 20 21  1  0  0  0  0
 20 36  1  0  0  0  0
 21 33  1  0  0  0  0
 34 35  1  0  0  0  0
 38 39  1  0  0  0  0
 38 40  1  0  0  0  0
 38 41  1  0  0  0  0
M  CHG  1   3  -1
M  END
$$$$
