32
 OpenBabel02232411153D
Structure written by MMmdl.
 54 57  0  0  0  0  0  0  0  0999 V2000
    2.2730   28.7970    6.5640 C   0  0  0  0  0  0  0  0  0  0  0  0
   -1.2310   31.3460    7.7680 C   0  0  0  0  0  0  0  0  0  0  0  0
    0.4820   26.0440    9.0350 C   0  0  0  0  0  0  0  0  0  0  0  0
   -0.5400   25.3280    9.9270 C   0  0  0  0  0  0  0  0  0  0  0  0
   -0.4780   23.8100    9.6560 C   0  0  0  0  0  0  0  0  0  0  0  0
   -1.4550   23.0550   10.5690 C   0  0  0  0  0  0  0  0  0  0  0  0
   -1.2020   23.3680   12.0530 C   0  0  0  0  0  0  0  0  0  0  0  0
   -1.2590   24.8790   12.3230 C   0  0  0  0  0  0  0  0  0  0  0  0
   -0.2820   25.6400   11.4140 C   0  0  0  0  0  0  0  0  0  0  0  0
    5.9460   25.9570    4.7970 C   0  0  0  0  0  0  0  0  0  0  0  0
    5.7690   24.8670    5.6720 C   0  0  0  0  0  0  0  0  0  0  0  0
    4.8640   25.0600    6.7360 C   0  0  0  0  0  0  0  0  0  0  0  0
    4.0850   26.2200    6.8860 C   0  0  0  0  0  0  0  0  0  0  0  0
    1.6330   27.8590    7.3620 N   0  0  0  0  0  0  0  0  0  0  0  0
    0.4300   28.1780    7.9140 C   0  0  0  0  0  0  0  0  0  0  0  0
   -0.2180   27.3070    8.6960 O   0  0  0  0  0  0  0  0  0  0  0  0
   -0.1500   29.4540    7.6920 C   0  0  0  0  0  0  0  0  0  0  0  0
   -1.3130   30.0750    8.1680 N   0  0  0  0  0  0  0  0  0  0  0  0
   -0.0250   31.6090    7.0260 N   0  0  0  0  0  0  0  0  0  0  0  0
    0.6560   30.4000    6.9400 C   0  0  0  0  0  0  0  0  0  0  0  0
    1.8490   30.0950    6.3330 N   0  0  0  0  0  0  0  0  0  0  0  0
    3.4430   28.4290    5.8860 N   0  0  0  0  0  0  0  0  0  0  0  0
    4.2080   27.2370    5.9360 C   0  0  0  0  0  0  0  0  0  0  0  0
    5.1940   27.1100    4.9190 C   0  0  0  0  0  0  0  0  0  0  0  0
   -1.9490   32.1380    7.9620 H   0  0  0  0  0  0  0  0  0  0  0  0
    1.4190   26.3070    9.5690 H   0  0  0  0  0  0  0  0  0  0  0  0
    0.6780   25.5070    8.0860 H   0  0  0  0  0  0  0  0  0  0  0  0
   -1.5630   25.7030    9.6670 H   0  0  0  0  0  0  0  0  0  0  0  0
   -0.7360   23.6080    8.5940 H   0  0  0  0  0  0  0  0  0  0  0  0
    0.5590   23.4430    9.8550 H   0  0  0  0  0  0  0  0  0  0  0  0
   -2.4960   23.3520   10.3100 H   0  0  0  0  0  0  0  0  0  0  0  0
   -1.3340   21.9580   10.4140 H   0  0  0  0  0  0  0  0  0  0  0  0
   -1.9670   22.8480   12.6740 H   0  0  0  0  0  0  0  0  0  0  0  0
   -0.1950   22.9850   12.3410 H   0  0  0  0  0  0  0  0  0  0  0  0
   -2.2960   25.2480   12.1550 H   0  0  0  0  0  0  0  0  0  0  0  0
   -0.9860   25.0740   13.3870 H   0  0  0  0  0  0  0  0  0  0  0  0
    0.7590   25.3390   11.6820 H   0  0  0  0  0  0  0  0  0  0  0  0
   -0.3890   26.7340   11.5920 H   0  0  0  0  0  0  0  0  0  0  0  0
    6.6930   25.9090    3.9910 H   0  0  0  0  0  0  0  0  0  0  0  0
    3.3850   26.3290    7.7150 H   0  0  0  0  0  0  0  0  0  0  0  0
    0.2040   32.5080    6.5800 H   0  0  0  0  0  0  0  0  0  0  0  0
    3.8640   29.1800    5.2710 H   0  0  0  0  0  0  0  0  0  0  0  0
    5.3660   27.9240    4.2200 H   0  0  0  0  0  0  0  0  0  0  0  0
    6.6190   23.4140    5.3110 S   0  0  0  0  0  0  0  0  0  0  0  0
    5.6690   22.3530    4.9300 O   0  0  0  0  0  0  0  0  0  0  0  0
    7.6970   23.5850    4.3230 O   0  0  0  0  0  0  0  0  0  0  0  0
    7.3480   23.0260    6.8090 N   0  0  0  0  0  0  0  0  0  0  0  0
    6.7440   23.0120    7.6440 H   0  0  0  0  0  0  0  0  0  0  0  0
    8.0660   22.2820    6.8160 H   0  0  0  0  0  0  0  0  0  0  0  0
    4.8290   24.0220    7.6310 O   0  0  0  0  0  0  0  0  0  0  0  0
    3.8630   24.0440    8.7140 C   0  0  0  0  0  0  0  0  0  0  0  0
    4.1190   23.1070    9.2640 H   0  0  0  0  0  0  0  0  0  0  0  0
    4.0310   24.9290    9.3640 H   0  0  0  0  0  0  0  0  0  0  0  0
    2.8360   24.0000    8.3020 H   0  0  0  0  0  0  0  0  0  0  0  0
  1 14  2  0  0  0  0
  1 21  1  0  0  0  0
  1 22  1  0  0  0  0
  2 18  2  0  0  0  0
  2 19  1  0  0  0  0
  2 25  1  0  0  0  0
  3  4  1  0  0  0  0
  3 16  1  0  0  0  0
  3 26  1  0  0  0  0
  3 27  1  0  0  0  0
  4  5  1  0  0  0  0
  4  9  1  0  0  0  0
  4 28  1  0  0  0  0
  5  6  1  0  0  0  0
  5 29  1  0  0  0  0
  5 30  1  0  0  0  0
  6  7  1  0  0  0  0
  6 31  1  0  0  0  0
  6 32  1  0  0  0  0
  7  8  1  0  0  0  0
  7 33  1  0  0  0  0
  7 34  1  0  0  0  0
  8  9  1  0  0  0  0
  8 35  1  0  0  0  0
  8 36  1  0  0  0  0
  9 37  1  0  0  0  0
  9 38  1  0  0  0  0
 10 11  2  0  0  0  0
 10 24  1  0  0  0  0
 10 39  1  0  0  0  0
 11 12  1  0  0  0  0
 11 44  1  0  0  0  0
 12 13  2  0  0  0  0
 12 50  1  0  0  0  0
 13 23  1  0  0  0  0
 13 40  1  0  0  0  0
 14 15  1  0  0  0  0
 15 16  1  0  0  0  0
 15 17  2  0  0  0  0
 17 18  1  0  0  0  0
 17 20  1  0  0  0  0
 19 20  1  0  0  0  0
 19 41  1  0  0  0  0
 20 21  2  0  0  0  0
 22 23  1  0  0  0  0
 22 42  1  0  0  0  0
 23 24  2  0  0  0  0
 24 43  1  0  0  0  0
 44 45  2  0  0  0  0
 44 46  2  0  0  0  0
 44 47  1  0  0  0  0
 47 49  1  0  0  0  0
 47 48  1  0  0  0  0
 50 51  1  0  0  0  0
 51 52  1  0  0  0  0
 51 53  1  0  0  0  0
 51 54  1  0  0  0  0
M  END
$$$$
