p38a_3flz
 OpenBabel02232411163D
Structure written by MMmdl.
 46 49  0  0  0  0  0  0  0  0999 V2000
   35.0760   35.1570   19.0610 O   0  0  0  0  0  0  0  0  0  0  0  0
   34.9230   37.2680   20.2800 C   0  0  0  0  0  0  0  0  0  0  0  0
   34.2400   37.1280   22.6610 C   0  0  0  0  0  0  0  0  0  0  0  0
   34.5920   37.9100   21.5200 C   0  0  0  0  0  0  0  0  0  0  0  0
   34.6000   39.3220   21.6830 C   0  0  0  0  0  0  0  0  0  0  0  0
   33.9940   39.0910   23.9380 C   0  0  0  0  0  0  0  0  0  0  0  0
   34.8520   35.9170   20.2050 C   0  0  0  0  0  0  0  0  0  0  0  0
   36.1220   35.5870   18.2260 C   0  0  0  0  0  0  0  0  0  0  0  0
   33.8330   34.9400   23.7810 C   0  0  0  0  0  0  0  0  0  0  0  0
   34.7950   38.7940   27.1310 C   0  0  0  0  0  0  0  0  0  0  0  0
   35.8320   35.5190   16.8580 C   0  0  0  0  0  0  0  0  0  0  0  0
   38.1180   36.2060   16.4230 C   0  0  0  0  0  0  0  0  0  0  0  0
   36.8520   35.8370   15.9570 C   0  0  0  0  0  0  0  0  0  0  0  0
   38.3830   36.2540   17.7950 C   0  0  0  0  0  0  0  0  0  0  0  0
   34.2560   33.8410   21.2590 O   0  0  0  0  0  0  0  0  0  0  0  0
   34.4170   35.0400   21.3210 C   0  0  0  0  0  0  0  0  0  0  0  0
   37.3840   35.9390   18.7200 C   0  0  0  0  0  0  0  0  0  0  0  0
   34.3160   39.9250   22.8460 N   0  0  0  0  0  0  0  0  0  0  0  0
   34.1700   35.7300   22.5630 N   0  0  0  0  0  0  0  0  0  0  0  0
   33.9560   37.7110   23.8710 N   0  0  0  0  0  0  0  0  0  0  0  0
   33.6380   39.7080   25.1140 N   0  0  0  0  0  0  0  0  0  0  0  0
   33.4490   38.9550   26.3910 C   0  0  0  0  0  0  0  0  0  0  0  0
   32.4430   39.7350   27.2660 C   0  0  0  0  0  0  0  0  0  0  0  0
   32.3180   39.0630   28.6390 C   0  0  0  0  0  0  0  0  0  0  0  0
   33.6030   38.9330   29.2870 O   0  0  0  0  0  0  0  0  0  0  0  0
   34.5570   38.1700   28.5120 C   0  0  0  0  0  0  0  0  0  0  0  0
   35.2330   37.8930   19.4370 H   0  0  0  0  0  0  0  0  0  0  0  0
   34.8430   39.9700   20.8240 H   0  0  0  0  0  0  0  0  0  0  0  0
   33.8800   33.8430   23.5590 H   0  0  0  0  0  0  0  0  0  0  0  0
   34.5580   35.1790   24.6060 H   0  0  0  0  0  0  0  0  0  0  0  0
   32.7990   35.2020   24.1360 H   0  0  0  0  0  0  0  0  0  0  0  0
   35.4710   38.1280   26.5420 H   0  0  0  0  0  0  0  0  0  0  0  0
   35.2890   39.7880   27.2420 H   0  0  0  0  0  0  0  0  0  0  0  0
   34.8310   35.2750   16.4980 H   0  0  0  0  0  0  0  0  0  0  0  0
   38.8940   36.4970   15.7190 H   0  0  0  0  0  0  0  0  0  0  0  0
   36.6490   35.8220   14.8860 H   0  0  0  0  0  0  0  0  0  0  0  0
   39.3740   36.5560   18.1380 H   0  0  0  0  0  0  0  0  0  0  0  0
   37.5820   35.9990   19.7880 H   0  0  0  0  0  0  0  0  0  0  0  0
   33.7590   40.7360   25.2070 H   0  0  0  0  0  0  0  0  0  0  0  0
   33.0250   37.9380   26.1560 H   0  0  0  0  0  0  0  0  0  0  0  0
   32.7870   40.7890   27.3950 H   0  0  0  0  0  0  0  0  0  0  0  0
   31.4460   39.7500   26.7630 H   0  0  0  0  0  0  0  0  0  0  0  0
   31.7570   39.7090   29.3540 H   0  0  0  0  0  0  0  0  0  0  0  0
   31.8520   38.0550   28.5480 H   0  0  0  0  0  0  0  0  0  0  0  0
   34.1890   37.1210   28.4160 H   0  0  0  0  0  0  0  0  0  0  0  0
   35.4730   38.2250   29.1440 H   0  0  0  0  0  0  0  0  0  0  0  0
  1  7  1  0  0  0  0
  1  8  1  0  0  0  0
  2  4  1  0  0  0  0
  2  7  2  0  0  0  0
  2 27  1  0  0  0  0
  3  4  2  0  0  0  0
  3 19  1  0  0  0  0
  3 20  1  0  0  0  0
  4  5  1  0  0  0  0
  5 18  2  0  0  0  0
  5 28  1  0  0  0  0
  6 18  1  0  0  0  0
  6 20  2  0  0  0  0
  6 21  1  0  0  0  0
  7 16  1  0  0  0  0
  8 11  2  0  0  0  0
  8 17  1  0  0  0  0
  9 19  1  0  0  0  0
  9 29  1  0  0  0  0
  9 30  1  0  0  0  0
  9 31  1  0  0  0  0
 10 22  1  0  0  0  0
 10 26  1  0  0  0  0
 10 32  1  0  0  0  0
 10 33  1  0  0  0  0
 11 13  1  0  0  0  0
 11 34  1  0  0  0  0
 12 13  2  0  0  0  0
 12 14  1  0  0  0  0
 12 35  1  0  0  0  0
 13 36  1  0  0  0  0
 14 17  2  0  0  0  0
 14 37  1  0  0  0  0
 15 16  2  0  0  0  0
 16 19  1  0  0  0  0
 17 38  1  0  0  0  0
 21 22  1  0  0  0  0
 21 39  1  0  0  0  0
 22 23  1  0  0  0  0
 22 40  1  0  0  0  0
 23 24  1  0  0  0  0
 23 41  1  0  0  0  0
 23 42  1  0  0  0  0
 24 25  1  0  0  0  0
 24 43  1  0  0  0  0
 24 44  1  0  0  0  0
 25 26  1  0  0  0  0
 26 45  1  0  0  0  0
 26 46  1  0  0  0  0
M  END
$$$$
