p38a_2l
 OpenBabel02232411163D
Structure written by MMmdl.
 49 52  0  0  0  0  0  0  0  0999 V2000
   36.3560   36.0270   15.8380 C   0  0  0  0  0  0  0  0  0  0  0  0
   34.5130   35.0300   21.3550 C   0  0  0  0  0  0  0  0  0  0  0  0
   35.7070   35.5570   16.9750 C   0  0  0  0  0  0  0  0  0  0  0  0
   33.9320   39.1410   23.8410 C   0  0  0  0  0  0  0  0  0  0  0  0
   34.7540   37.8860   21.5240 C   0  0  0  0  0  0  0  0  0  0  0  0
   35.2470   37.2090   20.3540 C   0  0  0  0  0  0  0  0  0  0  0  0
   37.6480   36.5360   16.0220 C   0  0  0  0  0  0  0  0  0  0  0  0
   38.3000   36.5530   17.2580 C   0  0  0  0  0  0  0  0  0  0  0  0
   37.6130   36.1080   18.3930 C   0  0  0  0  0  0  0  0  0  0  0  0
   34.2400   37.1450   22.6290 C   0  0  0  0  0  0  0  0  0  0  0  0
   34.7670   39.3010   21.6490 C   0  0  0  0  0  0  0  0  0  0  0  0
   35.1610   35.8610   20.3020 C   0  0  0  0  0  0  0  0  0  0  0  0
   36.3150   35.6110   18.2470 C   0  0  0  0  0  0  0  0  0  0  0  0
   34.4950   35.0270   16.8880 F   0  0  0  0  0  0  0  0  0  0  0  0
   35.5950   35.0100   19.2870 O   0  0  0  0  0  0  0  0  0  0  0  0
   34.3760   39.9390   22.7600 N   0  0  0  0  0  0  0  0  0  0  0  0
   34.2970   33.8420   21.2660 O   0  0  0  0  0  0  0  0  0  0  0  0
   34.1480   35.7430   22.5510 N   0  0  0  0  0  0  0  0  0  0  0  0
   33.8350   37.7660   23.7870 N   0  0  0  0  0  0  0  0  0  0  0  0
   33.5870   39.8350   24.9750 N   0  0  0  0  0  0  0  0  0  0  0  0
   35.8770   36.0220   14.8560 H   0  0  0  0  0  0  0  0  0  0  0  0
   35.6850   37.8120   19.5560 H   0  0  0  0  0  0  0  0  0  0  0  0
   39.3200   36.9360   17.3470 H   0  0  0  0  0  0  0  0  0  0  0  0
   38.0880   36.1740   19.3740 H   0  0  0  0  0  0  0  0  0  0  0  0
   35.1060   39.9230   20.8050 H   0  0  0  0  0  0  0  0  0  0  0  0
   33.6930   40.8690   24.9760 H   0  0  0  0  0  0  0  0  0  0  0  0
   38.2690   37.0590   14.9670 F   0  0  0  0  0  0  0  0  0  0  0  0
   33.4910   37.8700   28.2880 C   0  0  0  0  0  0  0  0  0  0  0  0
   34.0770   38.3560   26.9560 C   0  0  0  0  0  0  0  0  0  0  0  0
   33.0660   39.2890   26.2620 C   0  0  0  0  0  0  0  0  0  0  0  0
   31.7060   38.5820   26.1010 C   0  0  0  0  0  0  0  0  0  0  0  0
   31.2240   38.0870   27.4710 C   0  0  0  0  0  0  0  0  0  0  0  0
   32.2030   37.2390   28.1120 O   0  0  0  0  0  0  0  0  0  0  0  0
   33.3850   38.7140   29.0090 H   0  0  0  0  0  0  0  0  0  0  0  0
   34.1030   37.0430   28.7180 H   0  0  0  0  0  0  0  0  0  0  0  0
   34.3010   37.4760   26.3050 H   0  0  0  0  0  0  0  0  0  0  0  0
   35.0320   38.9030   27.1480 H   0  0  0  0  0  0  0  0  0  0  0  0
   32.9210   40.2090   26.9080 H   0  0  0  0  0  0  0  0  0  0  0  0
   30.9560   39.2870   25.6720 H   0  0  0  0  0  0  0  0  0  0  0  0
   31.8080   37.7100   25.4090 H   0  0  0  0  0  0  0  0  0  0  0  0
   30.9920   38.9400   28.1490 H   0  0  0  0  0  0  0  0  0  0  0  0
   30.3530   37.4000   27.3680 H   0  0  0  0  0  0  0  0  0  0  0  0
   33.5310   34.9640   23.6800 C   0  0  0  0  0  0  0  0  0  0  0  0
   33.9630   33.9250   23.6580 H   0  0  0  0  0  0  0  0  0  0  0  0
   33.8170   35.4530   24.6520 H   0  0  0  0  0  0  0  0  0  0  0  0
   32.0110   34.9040   23.5560 C   0  0  0  0  0  0  0  0  0  0  0  0
   31.5650   35.9250   23.5920 H   0  0  0  0  0  0  0  0  0  0  0  0
   31.6910   34.4060   22.6140 H   0  0  0  0  0  0  0  0  0  0  0  0
   31.6000   34.3230   24.4180 H   0  0  0  0  0  0  0  0  0  0  0  0
  1  3  2  0  0  0  0
  1  7  1  0  0  0  0
  1 21  1  0  0  0  0
  2 12  1  0  0  0  0
  2 17  2  0  0  0  0
  2 18  1  0  0  0  0
  3 13  1  0  0  0  0
  3 14  1  0  0  0  0
  4 16  2  0  0  0  0
  4 19  1  0  0  0  0
  4 20  1  0  0  0  0
  5  6  1  0  0  0  0
  5 10  1  0  0  0  0
  5 11  2  0  0  0  0
  6 12  2  0  0  0  0
  6 22  1  0  0  0  0
  7  8  2  0  0  0  0
  7 27  1  0  0  0  0
  8  9  1  0  0  0  0
  8 23  1  0  0  0  0
  9 13  2  0  0  0  0
  9 24  1  0  0  0  0
 10 18  1  0  0  0  0
 10 19  2  0  0  0  0
 11 16  1  0  0  0  0
 11 25  1  0  0  0  0
 12 15  1  0  0  0  0
 13 15  1  0  0  0  0
 18 43  1  0  0  0  0
 20 26  1  0  0  0  0
 20 30  1  0  0  0  0
 28 29  1  0  0  0  0
 28 33  1  0  0  0  0
 28 34  1  0  0  0  0
 28 35  1  0  0  0  0
 29 30  1  0  0  0  0
 29 36  1  0  0  0  0
 29 37  1  0  0  0  0
 30 31  1  0  0  0  0
 30 38  1  0  0  0  0
 31 32  1  0  0  0  0
 31 39  1  0  0  0  0
 31 40  1  0  0  0  0
 32 33  1  0  0  0  0
 32 41  1  0  0  0  0
 32 42  1  0  0  0  0
 43 44  1  0  0  0  0
 43 45  1  0  0  0  0
 43 46  1  0  0  0  0
 46 47  1  0  0  0  0
 46 48  1  0  0  0  0
 46 49  1  0  0  0  0
M  END
$$$$
