18626-1 flip
                    3D
 Schrodinger Suite 2022-3.
 38 39  0  0  1  0  0  0  0  0999 V2000
   25.1960    2.9850   32.1140 C   0  0  0  0  0  0  0  0  0  0  0  0
   23.8920    3.1020   31.6210 C   0  0  0  0  0  0  0  0  0  0  0  0
   23.5760    4.0840   30.6700 C   0  0  0  0  0  0  0  0  0  0  0  0
   24.5890    4.9260   30.1840 C   0  0  0  0  0  0  0  0  0  0  0  0
   25.8790    4.7980   30.7020 C   0  0  0  0  0  0  0  0  0  0  0  0
   26.2060    3.8400   31.6630 C   0  0  0  0  0  0  0  0  0  0  0  0
   22.1640    4.2240   30.1680 C   0  0  0  0  0  0  0  0  0  0  0  0
   21.3300    5.2250   30.9560 C   0  0  0  0  0  0  0  0  0  0  0  0
   21.8680    6.5340   30.9610 N   0  0  0  0  0  0  0  0  0  0  0  0
   21.2860    7.6950   31.5260 C   0  0  0  0  0  0  0  0  0  0  0  0
   20.2710    4.9550   31.4800 O   0  0  0  0  0  0  0  0  0  0  0  0
   22.0150    8.8300   31.2080 N   0  0  0  0  0  0  0  0  0  0  0  0
   21.5370   10.0210   31.6360 C   0  0  0  0  0  0  0  0  0  0  0  0
   20.3540   10.1820   32.4180 C   0  0  0  0  0  0  0  0  0  0  0  0
   19.6390    8.9880   32.7510 C   0  0  0  0  0  0  0  0  0  0  0  0
   20.1260    7.7340   32.2910 C   0  0  0  0  0  0  0  0  0  0  0  0
   18.4830    9.0360   33.4870 N   0  0  0  0  0  0  0  0  0  0  0  0
   19.9480   11.4830   32.7830 C   0  0  0  0  0  0  0  0  0  0  0  0
   22.1800   11.1600   31.3020 O   0  0  0  0  0  0  0  0  0  0  0  0
   23.4540   11.0900   30.5540 C   0  0  0  0  0  0  0  0  0  0  0  0
   23.1940   10.8660   29.0800 C   0  0  0  0  0  0  0  0  0  0  0  0
   19.6680   12.5790   33.0420 N   0  0  0  0  0  0  0  0  0  0  0  0
   25.4300    2.2140   32.8560 H   0  0  0  0  0  0  0  0  0  0  0  0
   24.3900    5.6670   29.4060 H   0  0  0  0  0  0  0  0  0  0  0  0
   19.5730    6.8230   32.5280 H   0  0  0  0  0  0  0  0  0  0  0  0
   21.6560    3.2230   30.2230 H   0  0  0  0  0  0  0  0  0  0  0  0
   22.1690    4.5510   29.0950 H   0  0  0  0  0  0  0  0  0  0  0  0
   22.7650    6.6980   30.4640 H   0  0  0  0  0  0  0  0  0  0  0  0
   18.0850    9.9230   33.7940 H   0  0  0  0  0  0  0  0  0  0  0  0
   17.9900    8.1660   33.7670 H   0  0  0  0  0  0  0  0  0  0  0  0
   24.1010   10.2990   30.9960 H   0  0  0  0  0  0  0  0  0  0  0  0
   23.8370   12.1180   30.7640 H   0  0  0  0  0  0  0  0  0  0  0  0
   24.1480   11.0050   28.5120 H   0  0  0  0  0  0  0  0  0  0  0  0
   22.8250    9.8320   28.8840 H   0  0  0  0  0  0  0  0  0  0  0  0
   22.4500   11.5930   28.6840 H   0  0  0  0  0  0  0  0  0  0  0  0
   23.1290    2.4050   31.9750 H   0  0  0  0  0  0  0  0  0  0  0  0
   27.2240    3.7510   32.0540 H   0  0  0  0  0  0  0  0  0  0  0  0
   27.1050    5.8720   30.1340 Cl  0  0  0  0  0  0  0  0  0  0  0  0
  1  2  1  0  0  0  0
  1  6  2  0  0  0  0
  1 23  1  0  0  0  0
  2  3  2  0  0  0  0
  2 36  1  0  0  0  0
  3  4  1  0  0  0  0
  3  7  1  0  0  0  0
  4  5  2  0  0  0  0
  4 24  1  0  0  0  0
  5  6  1  0  0  0  0
  5 38  1  0  0  0  0
  6 37  1  0  0  0  0
  7  8  1  0  0  0  0
  7 26  1  0  0  0  0
  7 27  1  0  0  0  0
  8  9  1  0  0  0  0
  8 11  2  0  0  0  0
  9 10  1  0  0  0  0
  9 28  1  0  0  0  0
 10 12  1  0  0  0  0
 10 16  2  0  0  0  0
 12 13  2  0  0  0  0
 13 14  1  0  0  0  0
 13 19  1  0  0  0  0
 14 15  2  0  0  0  0
 14 18  1  0  0  0  0
 15 16  1  0  0  0  0
 15 17  1  0  0  0  0
 16 25  1  0  0  0  0
 17 29  1  0  0  0  0
 17 30  1  0  0  0  0
 18 22  3  0  0  0  0
 19 20  1  0  0  0  0
 20 21  1  0  0  0  0
 20 31  1  0  0  0  0
 20 32  1  0  0  0  0
 21 33  1  0  0  0  0
 21 34  1  0  0  0  0
 21 35  1  0  0  0  0
M  END
$$$$
