p38a_3fmh
 OpenBabel02232411163D
Structure written by MMmdl.
 46 49  0  0  1  0  0  0  0  0999 V2000
   38.3660   37.2460   14.8720 F   0  0  0  0  0  0  0  0  0  0  0  0
   37.6770   36.7160   15.8800 C   0  0  0  0  0  0  0  0  0  0  0  0
   36.3370   36.3860   15.6630 C   0  0  0  0  0  0  0  0  0  0  0  0
   35.5800   35.8850   16.7270 C   0  0  0  0  0  0  0  0  0  0  0  0
   38.3220   36.5620   17.1150 C   0  0  0  0  0  0  0  0  0  0  0  0
   37.5430   36.0780   18.1620 C   0  0  0  0  0  0  0  0  0  0  0  0
   38.0680   35.9540   19.3740 F   0  0  0  0  0  0  0  0  0  0  0  0
   36.1910   35.7230   17.9730 C   0  0  0  0  0  0  0  0  0  0  0  0
   35.4760   35.0840   18.9980 O   0  0  0  0  0  0  0  0  0  0  0  0
   35.0590   35.9120   20.0370 C   0  0  0  0  0  0  0  0  0  0  0  0
   34.5100   35.0600   21.1270 C   0  0  0  0  0  0  0  0  0  0  0  0
   34.3770   33.8570   21.0800 O   0  0  0  0  0  0  0  0  0  0  0  0
   34.1260   35.7820   22.3100 N   0  0  0  0  0  0  0  0  0  0  0  0
   33.6020   35.0280   23.4840 C   0  0  0  0  0  0  0  0  0  0  0  0
   34.2260   37.1790   22.3920 C   0  0  0  0  0  0  0  0  0  0  0  0
   33.8680   37.7880   23.5710 N   0  0  0  0  0  0  0  0  0  0  0  0
   35.1130   37.2630   20.0780 C   0  0  0  0  0  0  0  0  0  0  0  0
   34.6880   37.9360   21.2750 C   0  0  0  0  0  0  0  0  0  0  0  0
   34.7210   39.3470   21.4210 C   0  0  0  0  0  0  0  0  0  0  0  0
   34.3920   39.9680   22.5660 N   0  0  0  0  0  0  0  0  0  0  0  0
   33.9920   39.1570   23.6400 C   0  0  0  0  0  0  0  0  0  0  0  0
   33.7850   39.7850   24.8650 N   0  0  0  0  0  0  0  0  0  0  0  0
   32.8640   39.1660   25.8730 C   0  0  2  0  0  0  0  0  0  0  0  0
   31.4070   39.4620   25.5130 C   0  0  0  0  0  0  0  0  0  0  0  0
   33.2880   39.7870   27.2370 C   0  0  0  0  0  0  0  0  0  0  0  0
   32.5800   39.1860   28.3910 N   0  0  0  0  0  0  0  0  0  0  0  0
   32.0320   37.9420   28.4100 N   0  0  0  0  0  0  0  0  0  0  0  0
   31.5330   37.8130   29.6730 C   0  0  0  0  0  0  0  0  0  0  0  0
   31.8070   38.9990   30.4010 N   0  0  0  0  0  0  0  0  0  0  0  0
   32.4370   39.8080   29.6080 N   0  0  0  0  0  0  0  0  0  0  0  0
   35.8680   36.5320   14.6880 H   0  0  0  0  0  0  0  0  0  0  0  0
   34.5220   35.6450   16.5790 H   0  0  0  0  0  0  0  0  0  0  0  0
   39.3680   36.8460   17.2590 H   0  0  0  0  0  0  0  0  0  0  0  0
   34.2160   35.2610   24.3970 H   0  0  0  0  0  0  0  0  0  0  0  0
   32.5390   35.3300   23.6870 H   0  0  0  0  0  0  0  0  0  0  0  0
   33.6400   33.9250   23.2870 H   0  0  0  0  0  0  0  0  0  0  0  0
   35.4770   37.8710   19.2480 H   0  0  0  0  0  0  0  0  0  0  0  0
   35.0130   39.9810   20.5690 H   0  0  0  0  0  0  0  0  0  0  0  0
   33.7480   40.8280   24.8630 H   0  0  0  0  0  0  0  0  0  0  0  0
   33.0410   38.0520   25.9010 H   0  0  0  0  0  0  0  0  0  0  0  0
   30.7210   39.0220   26.2710 H   0  0  0  0  0  0  0  0  0  0  0  0
   31.2320   40.5580   25.4490 H   0  0  0  0  0  0  0  0  0  0  0  0
   31.1570   38.9990   24.5300 H   0  0  0  0  0  0  0  0  0  0  0  0
   34.4010   39.6330   27.3760 H   0  0  0  0  0  0  0  0  0  0  0  0
   33.0850   40.8970   27.2420 H   0  0  0  0  0  0  0  0  0  0  0  0
   31.0080   36.9470   30.0720 H   0  0  0  0  0  0  0  0  0  0  0  0
  1  2  1  0  0  0  0
  2  3  2  0  0  0  0
  2  5  1  0  0  0  0
  3  4  1  0  0  0  0
  3 31  1  0  0  0  0
  4  8  2  0  0  0  0
  4 32  1  0  0  0  0
  5  6  2  0  0  0  0
  5 33  1  0  0  0  0
  6  7  1  0  0  0  0
  6  8  1  0  0  0  0
  8  9  1  0  0  0  0
  9 10  1  0  0  0  0
 10 11  1  0  0  0  0
 10 17  2  0  0  0  0
 11 12  2  0  0  0  0
 11 13  1  0  0  0  0
 13 14  1  0  0  0  0
 13 15  1  0  0  0  0
 14 34  1  0  0  0  0
 14 35  1  0  0  0  0
 14 36  1  0  0  0  0
 15 16  2  0  0  0  0
 15 18  1  0  0  0  0
 16 21  1  0  0  0  0
 17 18  1  0  0  0  0
 17 37  1  0  0  0  0
 18 19  2  0  0  0  0
 19 20  1  0  0  0  0
 19 38  1  0  0  0  0
 20 21  2  0  0  0  0
 21 22  1  0  0  0  0
 22 23  1  0  0  0  0
 22 39  1  0  0  0  0
 23 24  1  0  0  0  0
 23 25  1  0  0  0  0
 23 40  1  6  0  0  0
 24 41  1  0  0  0  0
 24 42  1  0  0  0  0
 24 43  1  0  0  0  0
 25 26  1  0  0  0  0
 25 44  1  0  0  0  0
 25 45  1  0  0  0  0
 26 27  1  0  0  0  0
 26 30  1  0  0  0  0
 27 28  2  0  0  0  0
 28 29  1  0  0  0  0
 28 46  1  0  0  0  0
 29 30  2  0  0  0  0
M  END
$$$$
