p38a_2p
 OpenBabel02232411163D
Structure written by MMmdl.
 58 61  0  0  0  0  0  0  0  0999 V2000
   36.3080   35.8480   16.0270 C   0  0  0  0  0  0  0  0  0  0  0  0
   34.7070   35.1140   21.7370 C   0  0  0  0  0  0  0  0  0  0  0  0
   35.5500   35.4650   17.1290 C   0  0  0  0  0  0  0  0  0  0  0  0
   34.3900   39.3000   24.1340 C   0  0  0  0  0  0  0  0  0  0  0  0
   34.7560   37.9760   21.7420 C   0  0  0  0  0  0  0  0  0  0  0  0
   35.0000   37.2760   20.5130 C   0  0  0  0  0  0  0  0  0  0  0  0
   37.5980   36.3270   16.2920 C   0  0  0  0  0  0  0  0  0  0  0  0
   38.1500   36.3840   17.5740 C   0  0  0  0  0  0  0  0  0  0  0  0
   37.3600   36.0170   18.6680 C   0  0  0  0  0  0  0  0  0  0  0  0
   34.6270   37.2660   22.9740 C   0  0  0  0  0  0  0  0  0  0  0  0
   34.6550   39.3940   21.7970 C   0  0  0  0  0  0  0  0  0  0  0  0
   35.0020   35.9230   20.5280 C   0  0  0  0  0  0  0  0  0  0  0  0
   36.0560   35.5660   18.4430 C   0  0  0  0  0  0  0  0  0  0  0  0
   34.3270   34.9760   16.9690 F   0  0  0  0  0  0  0  0  0  0  0  0
   35.2020   35.0740   19.4370 O   0  0  0  0  0  0  0  0  0  0  0  0
   34.4700   40.0590   22.9410 N   0  0  0  0  0  0  0  0  0  0  0  0
   34.5030   33.9200   21.7440 O   0  0  0  0  0  0  0  0  0  0  0  0
   34.6860   35.8600   22.9740 N   0  0  0  0  0  0  0  0  0  0  0  0
   34.4340   37.9210   24.1680 N   0  0  0  0  0  0  0  0  0  0  0  0
   34.3290   40.0540   25.2830 N   0  0  0  0  0  0  0  0  0  0  0  0
   35.9090   35.8090   15.0100 H   0  0  0  0  0  0  0  0  0  0  0  0
   35.1920   37.8620   19.6100 H   0  0  0  0  0  0  0  0  0  0  0  0
   39.1740   36.7410   17.7230 H   0  0  0  0  0  0  0  0  0  0  0  0
   37.7570   36.1070   19.6810 H   0  0  0  0  0  0  0  0  0  0  0  0
   34.7230   39.9870   20.8680 H   0  0  0  0  0  0  0  0  0  0  0  0
   34.1850   41.0830   25.1610 H   0  0  0  0  0  0  0  0  0  0  0  0
   38.3180   36.7820   15.2690 F   0  0  0  0  0  0  0  0  0  0  0  0
   34.2930   38.1480   28.6400 C   0  0  0  0  0  0  0  0  0  0  0  0
   34.7520   38.4440   27.2040 C   0  0  0  0  0  0  0  0  0  0  0  0
   33.9240   39.6130   26.6510 C   0  0  0  0  0  0  0  0  0  0  0  0
   32.4180   39.2860   26.7310 C   0  0  0  0  0  0  0  0  0  0  0  0
   32.0640   38.9680   28.1910 C   0  0  0  0  0  0  0  0  0  0  0  0
   32.8710   37.8900   28.7140 O   0  0  0  0  0  0  0  0  0  0  0  0
   34.5430   38.9970   29.3190 H   0  0  0  0  0  0  0  0  0  0  0  0
   34.7290   37.1900   29.0050 H   0  0  0  0  0  0  0  0  0  0  0  0
   34.6170   37.5320   26.5720 H   0  0  0  0  0  0  0  0  0  0  0  0
   35.8360   38.7110   27.2010 H   0  0  0  0  0  0  0  0  0  0  0  0
   34.1310   40.5310   27.2860 H   0  0  0  0  0  0  0  0  0  0  0  0
   31.8210   40.1610   26.3810 H   0  0  0  0  0  0  0  0  0  0  0  0
   32.1840   38.4110   26.0800 H   0  0  0  0  0  0  0  0  0  0  0  0
   32.2040   39.8690   28.8330 H   0  0  0  0  0  0  0  0  0  0  0  0
   31.0320   38.5570   28.2770 H   0  0  0  0  0  0  0  0  0  0  0  0
   34.8280   35.0940   24.2560 C   0  0  0  0  0  0  0  0  0  0  0  0
   35.5120   34.2250   24.0530 H   0  0  0  0  0  0  0  0  0  0  0  0
   35.3090   35.7560   25.0270 H   0  0  0  0  0  0  0  0  0  0  0  0
   33.4790   34.5730   24.8000 C   0  0  0  0  0  0  0  0  0  0  0  0
   32.8820   35.4410   25.1750 H   0  0  0  0  0  0  0  0  0  0  0  0
   32.9150   34.0700   23.9770 H   0  0  0  0  0  0  0  0  0  0  0  0
   33.7570   33.5760   25.9320 C   0  0  0  0  0  0  0  0  0  0  0  0
   34.4130   34.0790   26.6960 H   0  0  0  0  0  0  0  0  0  0  0  0
   34.3660   32.7260   25.5190 H   0  0  0  0  0  0  0  0  0  0  0  0
   32.3170   32.9360   26.7150 S   0  0  0  0  0  0  0  0  0  0  0  0
   31.5030   34.0140   27.3190 O   0  0  0  0  0  0  0  0  0  0  0  0
   32.7060   31.9490   27.7600 O   0  0  0  0  0  0  0  0  0  0  0  0
   31.4170   32.1310   25.4630 C   0  0  0  0  0  0  0  0  0  0  0  0
   32.0700   31.4440   24.8620 H   0  0  0  0  0  0  0  0  0  0  0  0
   30.5840   31.5030   25.8700 H   0  0  0  0  0  0  0  0  0  0  0  0
   30.9520   32.8480   24.7390 H   0  0  0  0  0  0  0  0  0  0  0  0
  1  3  2  0  0  0  0
  1  7  1  0  0  0  0
  1 21  1  0  0  0  0
  2 12  1  0  0  0  0
  2 17  2  0  0  0  0
  2 18  1  0  0  0  0
  3 13  1  0  0  0  0
  3 14  1  0  0  0  0
  4 16  2  0  0  0  0
  4 19  1  0  0  0  0
  4 20  1  0  0  0  0
  5  6  1  0  0  0  0
  5 10  1  0  0  0  0
  5 11  2  0  0  0  0
  6 12  2  0  0  0  0
  6 22  1  0  0  0  0
  7  8  2  0  0  0  0
  7 27  1  0  0  0  0
  8  9  1  0  0  0  0
  8 23  1  0  0  0  0
  9 13  2  0  0  0  0
  9 24  1  0  0  0  0
 10 18  1  0  0  0  0
 10 19  2  0  0  0  0
 11 16  1  0  0  0  0
 11 25  1  0  0  0  0
 12 15  1  0  0  0  0
 13 15  1  0  0  0  0
 18 43  1  0  0  0  0
 20 26  1  0  0  0  0
 20 30  1  0  0  0  0
 28 29  1  0  0  0  0
 28 33  1  0  0  0  0
 28 34  1  0  0  0  0
 28 35  1  0  0  0  0
 29 30  1  0  0  0  0
 29 36  1  0  0  0  0
 29 37  1  0  0  0  0
 30 31  1  0  0  0  0
 30 38  1  0  0  0  0
 31 32  1  0  0  0  0
 31 39  1  0  0  0  0
 31 40  1  0  0  0  0
 32 33  1  0  0  0  0
 32 41  1  0  0  0  0
 32 42  1  0  0  0  0
 43 44  1  0  0  0  0
 43 45  1  0  0  0  0
 43 46  1  0  0  0  0
 46 47  1  0  0  0  0
 46 48  1  0  0  0  0
 46 49  1  0  0  0  0
 49 50  1  0  0  0  0
 49 51  1  0  0  0  0
 49 52  1  0  0  0  0
 52 53  2  0  0  0  0
 52 54  2  0  0  0  0
 52 55  1  0  0  0  0
 55 56  1  0  0  0  0
 55 57  1  0  0  0  0
 55 58  1  0  0  0  0
M  END
$$$$
