18631-1 flip
                    3D
 Schrodinger Suite 2022-3.
 42 43  0  0  1  0  0  0  0  0999 V2000
   25.4340    3.2120   30.6750 C   0  0  0  0  0  0  0  0  0  0  0  0
   24.0380    3.2670   30.7360 C   0  0  0  0  0  0  0  0  0  0  0  0
   23.2950    4.2260   29.9950 C   0  0  0  0  0  0  0  0  0  0  0  0
   24.0070    5.1260   29.1980 C   0  0  0  0  0  0  0  0  0  0  0  0
   25.4050    5.0820   29.1330 C   0  0  0  0  0  0  0  0  0  0  0  0
   26.1120    4.1290   29.8660 C   0  0  0  0  0  0  0  0  0  0  0  0
   21.7990    4.2090   30.0470 C   0  0  0  0  0  0  0  0  0  0  0  0
   21.1260    5.2390   30.9350 C   0  0  0  0  0  0  0  0  0  0  0  0
   21.8080    6.4680   31.1050 N   0  0  0  0  0  0  0  0  0  0  0  0
   21.2420    7.6580   31.6250 C   0  0  0  0  0  0  0  0  0  0  0  0
   20.0300    5.0470   31.4200 O   0  0  0  0  0  0  0  0  0  0  0  0
   21.9990    8.7720   31.2980 N   0  0  0  0  0  0  0  0  0  0  0  0
   21.5280    9.9830   31.6740 C   0  0  0  0  0  0  0  0  0  0  0  0
   20.3250   10.1870   32.4150 C   0  0  0  0  0  0  0  0  0  0  0  0
   19.5890    9.0130   32.7720 C   0  0  0  0  0  0  0  0  0  0  0  0
   20.0630    7.7390   32.3580 C   0  0  0  0  0  0  0  0  0  0  0  0
   23.2360    2.4430   31.4930 O   0  0  0  0  0  0  0  0  0  0  0  0
   23.8550    1.3230   32.1770 C   0  0  0  0  0  0  0  0  0  0  0  0
   18.4250    9.0940   33.4930 N   0  0  0  0  0  0  0  0  0  0  0  0
   19.9140   11.5010   32.7200 C   0  0  0  0  0  0  0  0  0  0  0  0
   22.1970   11.1030   31.3240 O   0  0  0  0  0  0  0  0  0  0  0  0
   23.4740   10.9960   30.5880 C   0  0  0  0  0  0  0  0  0  0  0  0
   23.2310   10.7100   29.1210 C   0  0  0  0  0  0  0  0  0  0  0  0
   19.6210   12.6050   32.9280 N   0  0  0  0  0  0  0  0  0  0  0  0
   26.0070    2.4740   31.2400 H   0  0  0  0  0  0  0  0  0  0  0  0
   23.4770    5.8850   28.6170 H   0  0  0  0  0  0  0  0  0  0  0  0
   19.4860    6.8460   32.6080 H   0  0  0  0  0  0  0  0  0  0  0  0
   21.4770    3.1900   30.4160 H   0  0  0  0  0  0  0  0  0  0  0  0
   21.3800    4.3580   29.0170 H   0  0  0  0  0  0  0  0  0  0  0  0
   22.7540    6.5810   30.6960 H   0  0  0  0  0  0  0  0  0  0  0  0
   24.5670    1.6920   32.9460 H   0  0  0  0  0  0  0  0  0  0  0  0
   24.3470    0.6540   31.4400 H   0  0  0  0  0  0  0  0  0  0  0  0
   22.9660    0.8370   32.6440 H   0  0  0  0  0  0  0  0  0  0  0  0
   18.0320    9.9920   33.7740 H   0  0  0  0  0  0  0  0  0  0  0  0
   17.9150    8.2340   33.7760 H   0  0  0  0  0  0  0  0  0  0  0  0
   24.1160   10.2240   31.0690 H   0  0  0  0  0  0  0  0  0  0  0  0
   23.8590   12.0310   30.7570 H   0  0  0  0  0  0  0  0  0  0  0  0
   24.1910   10.8300   28.5600 H   0  0  0  0  0  0  0  0  0  0  0  0
   22.8690    9.6670   28.9650 H   0  0  0  0  0  0  0  0  0  0  0  0
   22.4880   11.4160   28.6860 H   0  0  0  0  0  0  0  0  0  0  0  0
   27.2050    4.0960   29.8130 H   0  0  0  0  0  0  0  0  0  0  0  0
   25.9460    5.8020   28.5140 H   0  0  0  0  0  0  0  0  0  0  0  0
  1  2  1  0  0  0  0
  1  6  2  0  0  0  0
  1 25  1  0  0  0  0
  2  3  2  0  0  0  0
  2 17  1  0  0  0  0
  3  4  1  0  0  0  0
  3  7  1  0  0  0  0
  4  5  2  0  0  0  0
  4 26  1  0  0  0  0
  5  6  1  0  0  0  0
  5 42  1  0  0  0  0
  6 41  1  0  0  0  0
  7  8  1  0  0  0  0
  7 28  1  0  0  0  0
  7 29  1  0  0  0  0
  8  9  1  0  0  0  0
  8 11  2  0  0  0  0
  9 10  1  0  0  0  0
  9 30  1  0  0  0  0
 10 12  1  0  0  0  0
 10 16  2  0  0  0  0
 12 13  2  0  0  0  0
 13 14  1  0  0  0  0
 13 21  1  0  0  0  0
 14 15  2  0  0  0  0
 14 20  1  0  0  0  0
 15 16  1  0  0  0  0
 15 19  1  0  0  0  0
 16 27  1  0  0  0  0
 17 18  1  0  0  0  0
 18 31  1  0  0  0  0
 18 32  1  0  0  0  0
 18 33  1  0  0  0  0
 19 34  1  0  0  0  0
 19 35  1  0  0  0  0
 20 24  3  0  0  0  0
 21 22  1  0  0  0  0
 22 23  1  0  0  0  0
 22 36  1  0  0  0  0
 22 37  1  0  0  0  0
 23 38  1  0  0  0  0
 23 39  1  0  0  0  0
 23 40  1  0  0  0  0
M  END
$$$$
