p38a_2p
 OpenBabel02232411163D
Structure written by MMmdl.
 58 61  0  0  0  0  0  0  0  0999 V2000
   38.2210   36.5390   17.1450 C   0  0  0  0  0  0  0  0  0  0  0  0
   34.4190   35.1110   21.1030 C   0  0  0  0  0  0  0  0  0  0  0  0
   37.3870   36.0870   18.1640 C   0  0  0  0  0  0  0  0  0  0  0  0
   33.8480   39.1310   23.7360 C   0  0  0  0  0  0  0  0  0  0  0  0
   34.5230   37.9870   21.3160 C   0  0  0  0  0  0  0  0  0  0  0  0
   34.9060   37.3560   20.0830 C   0  0  0  0  0  0  0  0  0  0  0  0
   37.6180   36.7590   15.8990 C   0  0  0  0  0  0  0  0  0  0  0  0
   36.2640   36.5280   15.6450 C   0  0  0  0  0  0  0  0  0  0  0  0
   35.4490   36.0620   16.6810 C   0  0  0  0  0  0  0  0  0  0  0  0
   34.1380   37.1890   22.4320 C   0  0  0  0  0  0  0  0  0  0  0  0
   34.5310   39.3960   21.5090 C   0  0  0  0  0  0  0  0  0  0  0  0
   34.8780   36.0060   20.0070 C   0  0  0  0  0  0  0  0  0  0  0  0
   36.0170   35.8340   17.9380 C   0  0  0  0  0  0  0  0  0  0  0  0
   37.8750   35.8880   19.3810 F   0  0  0  0  0  0  0  0  0  0  0  0
   35.2360   35.2100   18.9200 O   0  0  0  0  0  0  0  0  0  0  0  0
   34.2170   39.9830   22.6740 N   0  0  0  0  0  0  0  0  0  0  0  0
   34.3370   33.9040   21.0280 O   0  0  0  0  0  0  0  0  0  0  0  0
   34.0730   35.7860   22.3250 N   0  0  0  0  0  0  0  0  0  0  0  0
   33.8270   37.7540   23.6390 N   0  0  0  0  0  0  0  0  0  0  0  0
   33.4340   39.7000   24.9150 N   0  0  0  0  0  0  0  0  0  0  0  0
   39.2810   36.7480   17.3170 H   0  0  0  0  0  0  0  0  0  0  0  0
   35.2210   37.9910   19.2530 H   0  0  0  0  0  0  0  0  0  0  0  0
   35.8300   36.7210   14.6610 H   0  0  0  0  0  0  0  0  0  0  0  0
   34.3820   35.8900   16.5070 H   0  0  0  0  0  0  0  0  0  0  0  0
   34.8000   40.0580   20.6700 H   0  0  0  0  0  0  0  0  0  0  0  0
   33.5580   40.7160   25.0800 H   0  0  0  0  0  0  0  0  0  0  0  0
   38.3670   37.2500   14.9150 F   0  0  0  0  0  0  0  0  0  0  0  0
   31.4420   38.6820   28.0090 C   0  0  0  0  0  0  0  0  0  0  0  0
   31.7810   39.4620   26.7320 C   0  0  0  0  0  0  0  0  0  0  0  0
   33.0650   38.8770   26.1070 C   0  0  0  0  0  0  0  0  0  0  0  0
   34.2120   38.8840   27.1400 C   0  0  0  0  0  0  0  0  0  0  0  0
   33.7620   38.1510   28.4100 C   0  0  0  0  0  0  0  0  0  0  0  0
   32.5400   38.7050   28.9490 O   0  0  0  0  0  0  0  0  0  0  0  0
   31.1890   37.6230   27.7680 H   0  0  0  0  0  0  0  0  0  0  0  0
   30.6260   39.1740   28.5860 H   0  0  0  0  0  0  0  0  0  0  0  0
   31.9420   40.5390   26.9720 H   0  0  0  0  0  0  0  0  0  0  0  0
   30.9370   39.3800   26.0060 H   0  0  0  0  0  0  0  0  0  0  0  0
   32.8660   37.8160   25.7810 H   0  0  0  0  0  0  0  0  0  0  0  0
   35.1060   38.3650   26.7150 H   0  0  0  0  0  0  0  0  0  0  0  0
   34.5010   39.9350   27.3810 H   0  0  0  0  0  0  0  0  0  0  0  0
   33.6060   37.0660   28.2020 H   0  0  0  0  0  0  0  0  0  0  0  0
   34.4850   38.3090   29.2440 H   0  0  0  0  0  0  0  0  0  0  0  0
   33.7080   34.9790   23.5360 C   0  0  0  0  0  0  0  0  0  0  0  0
   33.9840   33.9100   23.3360 H   0  0  0  0  0  0  0  0  0  0  0  0
   34.3200   35.3600   24.4020 H   0  0  0  0  0  0  0  0  0  0  0  0
   32.2040   35.0800   23.8830 C   0  0  0  0  0  0  0  0  0  0  0  0
   31.8740   36.1450   23.7450 H   0  0  0  0  0  0  0  0  0  0  0  0
   31.6050   34.4600   23.1780 H   0  0  0  0  0  0  0  0  0  0  0  0
   31.9340   34.7030   25.3480 C   0  0  0  0  0  0  0  0  0  0  0  0
   31.1840   35.4420   25.7530 H   0  0  0  0  0  0  0  0  0  0  0  0
   32.8670   34.8850   25.9510 H   0  0  0  0  0  0  0  0  0  0  0  0
   31.3450   33.0730   25.6510 S   0  0  0  0  0  0  0  0  0  0  0  0
   29.9090   32.9400   25.3150 O   0  0  0  0  0  0  0  0  0  0  0  0
   31.5690   32.7230   27.0810 O   0  0  0  0  0  0  0  0  0  0  0  0
   32.2650   32.0060   24.6370 C   0  0  0  0  0  0  0  0  0  0  0  0
   33.3680   32.1720   24.7490 H   0  0  0  0  0  0  0  0  0  0  0  0
   32.0940   30.9280   24.8950 H   0  0  0  0  0  0  0  0  0  0  0  0
   32.0100   32.1130   23.5530 H   0  0  0  0  0  0  0  0  0  0  0  0
  1  3  2  0  0  0  0
  1  7  1  0  0  0  0
  1 21  1  0  0  0  0
  2 12  1  0  0  0  0
  2 17  2  0  0  0  0
  2 18  1  0  0  0  0
  3 13  1  0  0  0  0
  3 14  1  0  0  0  0
  4 16  2  0  0  0  0
  4 19  1  0  0  0  0
  4 20  1  0  0  0  0
  5  6  1  0  0  0  0
  5 10  1  0  0  0  0
  5 11  2  0  0  0  0
  6 12  2  0  0  0  0
  6 22  1  0  0  0  0
  7  8  2  0  0  0  0
  7 27  1  0  0  0  0
  8  9  1  0  0  0  0
  8 23  1  0  0  0  0
  9 13  2  0  0  0  0
  9 24  1  0  0  0  0
 10 18  1  0  0  0  0
 10 19  2  0  0  0  0
 11 16  1  0  0  0  0
 11 25  1  0  0  0  0
 12 15  1  0  0  0  0
 13 15  1  0  0  0  0
 18 43  1  0  0  0  0
 20 26  1  0  0  0  0
 20 30  1  0  0  0  0
 28 29  1  0  0  0  0
 28 33  1  0  0  0  0
 28 34  1  0  0  0  0
 28 35  1  0  0  0  0
 29 30  1  0  0  0  0
 29 36  1  0  0  0  0
 29 37  1  0  0  0  0
 30 31  1  0  0  0  0
 30 38  1  0  0  0  0
 31 32  1  0  0  0  0
 31 39  1  0  0  0  0
 31 40  1  0  0  0  0
 32 33  1  0  0  0  0
 32 41  1  0  0  0  0
 32 42  1  0  0  0  0
 43 44  1  0  0  0  0
 43 45  1  0  0  0  0
 43 46  1  0  0  0  0
 46 47  1  0  0  0  0
 46 48  1  0  0  0  0
 46 49  1  0  0  0  0
 49 50  1  0  0  0  0
 49 51  1  0  0  0  0
 49 52  1  0  0  0  0
 52 53  2  0  0  0  0
 52 54  2  0  0  0  0
 52 55  1  0  0  0  0
 55 56  1  0  0  0  0
 55 57  1  0  0  0  0
 55 58  1  0  0  0  0
M  END
$$$$
