38
                    3D
 Schrodinger Suite 2022-3.
 48 51  0  0  1  0  0  0  0  0999 V2000
    3.6320  -48.6600    7.2240 O   0  0  0  0  0  0  0  0  0  0  0  0
    3.2140  -49.5070    6.4240 C   0  0  0  0  0  0  0  0  0  0  0  0
    3.8950  -50.2400    5.6830 O   0  5  0  0  0  0  0  0  0  0  0  0
    1.6900  -49.7220    6.3360 C   0  0  0  0  0  0  0  0  0  0  0  0
   -0.2460  -50.9290    6.4960 C   0  0  0  0  0  0  0  0  0  0  0  0
   -1.2270  -51.9090    6.7200 C   0  0  0  0  0  0  0  0  0  0  0  0
   -2.5390  -51.5800    6.4120 C   0  0  0  0  0  0  0  0  0  0  0  0
   -2.8730  -50.3080    5.8920 C   0  0  0  0  0  0  0  0  0  0  0  0
   -1.9070  -49.3360    5.6670 C   0  0  0  0  0  0  0  0  0  0  0  0
   -0.5660  -49.6240    5.9710 C   0  0  0  0  0  0  0  0  0  0  0  0
    0.6740  -48.8820    5.8930 C   0  0  0  0  0  0  0  0  0  0  0  0
    0.7840  -47.4710    5.4370 C   0  0  0  0  0  0  0  0  0  0  0  0
    0.7930  -46.4740    6.6110 C   0  0  0  0  0  0  0  0  0  0  0  0
   -0.5640  -46.3390    7.2930 C   0  0  0  0  0  0  0  0  0  0  0  0
   -1.3330  -45.4970    6.3530 O   0  0  0  0  0  0  0  0  0  0  0  0
   -2.6430  -45.2540    6.6320 C   0  0  0  0  0  0  0  0  0  0  0  0
   -3.3160  -45.7420    7.7600 C   0  0  0  0  0  0  0  0  0  0  0  0
   -4.6730  -45.4310    7.9200 C   0  0  0  0  0  0  0  0  0  0  0  0
   -5.3520  -44.6440    6.9800 C   0  0  0  0  0  0  0  0  0  0  0  0
   -4.6560  -44.1450    5.8720 C   0  0  0  0  0  0  0  0  0  0  0  0
   -3.3090  -44.4320    5.6940 C   0  0  0  0  0  0  0  0  0  0  0  0
   -0.9750  -52.8890    7.1230 H   0  0  0  0  0  0  0  0  0  0  0  0
   -3.3350  -52.3070    6.5730 H   0  0  0  0  0  0  0  0  0  0  0  0
   -3.9200  -50.0980    5.6690 H   0  0  0  0  0  0  0  0  0  0  0  0
   -2.1960  -48.3660    5.2600 H   0  0  0  0  0  0  0  0  0  0  0  0
   -0.0900  -47.2240    4.7810 H   0  0  0  0  0  0  0  0  0  0  0  0
    1.7180  -47.3200    4.8450 H   0  0  0  0  0  0  0  0  0  0  0  0
    1.0780  -45.4680    6.2260 H   0  0  0  0  0  0  0  0  0  0  0  0
    1.5370  -46.8070    7.3740 H   0  0  0  0  0  0  0  0  0  0  0  0
   -0.5070  -45.7740    8.2470 H   0  0  0  0  0  0  0  0  0  0  0  0
   -1.0970  -47.3090    7.3930 H   0  0  0  0  0  0  0  0  0  0  0  0
   -2.8150  -46.3460    8.5110 H   0  0  0  0  0  0  0  0  0  0  0  0
   -2.7800  -44.0090    4.8550 H   0  0  0  0  0  0  0  0  0  0  0  0
    1.1420  -50.9620    6.7120 N   0  0  0  0  0  0  0  0  0  0  0  0
    1.6310  -51.7750    7.0680 H   0  0  0  0  0  0  0  0  0  0  0  0
   -5.1790  -43.5240    5.1420 H   0  0  0  0  0  0  0  0  0  0  0  0
   -6.4130  -44.4300    7.0890 H   0  0  0  0  0  0  0  0  0  0  0  0
   -6.7080  -46.8960   11.3720 C   0  0  0  0  0  0  0  0  0  0  0  0
   -5.8160  -47.7260   10.6910 C   0  0  0  0  0  0  0  0  0  0  0  0
   -5.1510  -47.2590    9.5580 C   0  0  0  0  0  0  0  0  0  0  0  0
   -5.3760  -45.9470    9.1130 C   0  0  0  0  0  0  0  0  0  0  0  0
   -6.2560  -45.1080    9.8110 C   0  0  0  0  0  0  0  0  0  0  0  0
   -6.9070  -45.5780   10.9490 C   0  0  0  0  0  0  0  0  0  0  0  0
   -7.2550  -47.2850   12.2300 H   0  0  0  0  0  0  0  0  0  0  0  0
   -5.6420  -48.7330   11.0620 H   0  0  0  0  0  0  0  0  0  0  0  0
   -4.4760  -47.9260    9.0160 H   0  0  0  0  0  0  0  0  0  0  0  0
   -6.4400  -44.0930    9.4660 H   0  0  0  0  0  0  0  0  0  0  0  0
   -7.5720  -44.9170   11.5020 H   0  0  0  0  0  0  0  0  0  0  0  0
  1  2  2  0  0  0  0
  2  3  1  0  0  0  0
  2  4  1  0  0  0  0
  4 11  2  0  0  0  0
  4 34  1  0  0  0  0
  5  6  1  0  0  0  0
  5 10  2  0  0  0  0
  5 34  1  0  0  0  0
  6  7  2  0  0  0  0
  6 22  1  0  0  0  0
  7  8  1  0  0  0  0
  7 23  1  0  0  0  0
  8  9  2  0  0  0  0
  8 24  1  0  0  0  0
  9 10  1  0  0  0  0
  9 25  1  0  0  0  0
 10 11  1  0  0  0  0
 11 12  1  0  0  0  0
 12 26  1  0  0  0  0
 12 27  1  0  0  0  0
 12 13  1  0  0  0  0
 13 14  1  0  0  0  0
 13 28  1  0  0  0  0
 13 29  1  0  0  0  0
 14 15  1  0  0  0  0
 14 30  1  0  0  0  0
 14 31  1  0  0  0  0
 15 16  1  0  0  0  0
 16 17  1  0  0  0  0
 16 21  2  0  0  0  0
 17 18  2  0  0  0  0
 17 32  1  0  0  0  0
 18 19  1  0  0  0  0
 18 41  1  0  0  0  0
 19 20  2  0  0  0  0
 19 37  1  0  0  0  0
 20 21  1  0  0  0  0
 20 36  1  0  0  0  0
 21 33  1  0  0  0  0
 34 35  1  0  0  0  0
 38 39  2  0  0  0  0
 38 43  1  0  0  0  0
 38 44  1  0  0  0  0
 39 40  1  0  0  0  0
 39 45  1  0  0  0  0
 40 41  2  0  0  0  0
 40 46  1  0  0  0  0
 41 42  1  0  0  0  0
 42 43  2  0  0  0  0
 42 47  1  0  0  0  0
 43 48  1  0  0  0  0
M  CHG  1   3  -1
M  END
$$$$
