p38a_2m
 OpenBabel02232411163D
Structure written by MMmdl.
 50 54  0  0  0  0  0  0  0  0999 V2000
   38.2910   36.5440   17.1800 C   0  0  0  0  0  0  0  0  0  0  0  0
   34.4980   35.1460   21.2640 C   0  0  0  0  0  0  0  0  0  0  0  0
   37.5200   36.0980   18.2500 C   0  0  0  0  0  0  0  0  0  0  0  0
   33.7860   39.2710   23.6980 C   0  0  0  0  0  0  0  0  0  0  0  0
   34.5880   38.0160   21.3750 C   0  0  0  0  0  0  0  0  0  0  0  0
   35.0490   37.3480   20.1890 C   0  0  0  0  0  0  0  0  0  0  0  0
   37.6300   36.6880   15.9530 C   0  0  0  0  0  0  0  0  0  0  0  0
   36.2800   36.3830   15.7650 C   0  0  0  0  0  0  0  0  0  0  0  0
   35.5290   35.9250   16.8530 C   0  0  0  0  0  0  0  0  0  0  0  0
   34.1430   37.2690   22.5030 C   0  0  0  0  0  0  0  0  0  0  0  0
   34.5740   39.4330   21.4900 C   0  0  0  0  0  0  0  0  0  0  0  0
   35.0290   35.9980   20.1650 C   0  0  0  0  0  0  0  0  0  0  0  0
   36.1550   35.7740   18.0930 C   0  0  0  0  0  0  0  0  0  0  0  0
   38.0650   35.9750   19.4530 F   0  0  0  0  0  0  0  0  0  0  0  0
   35.4540   35.1570   19.1380 O   0  0  0  0  0  0  0  0  0  0  0  0
   34.2030   40.0700   22.6070 N   0  0  0  0  0  0  0  0  0  0  0  0
   34.3870   33.9430   21.1890 O   0  0  0  0  0  0  0  0  0  0  0  0
   34.1110   35.8560   22.4600 N   0  0  0  0  0  0  0  0  0  0  0  0
   33.7410   37.8940   23.6600 N   0  0  0  0  0  0  0  0  0  0  0  0
   33.3900   39.9640   24.8150 N   0  0  0  0  0  0  0  0  0  0  0  0
   39.3460   36.8050   17.3000 H   0  0  0  0  0  0  0  0  0  0  0  0
   35.4060   37.9570   19.3550 H   0  0  0  0  0  0  0  0  0  0  0  0
   35.7990   36.5120   14.7920 H   0  0  0  0  0  0  0  0  0  0  0  0
   34.4640   35.7040   16.7260 H   0  0  0  0  0  0  0  0  0  0  0  0
   34.8740   40.0550   20.6310 H   0  0  0  0  0  0  0  0  0  0  0  0
   33.5470   40.9920   24.8410 H   0  0  0  0  0  0  0  0  0  0  0  0
   38.3160   37.1780   14.9230 F   0  0  0  0  0  0  0  0  0  0  0  0
   33.4220   38.0840   28.1800 C   0  0  0  0  0  0  0  0  0  0  0  0
   33.9800   38.5760   26.8380 C   0  0  0  0  0  0  0  0  0  0  0  0
   32.9070   39.4140   26.1160 C   0  0  0  0  0  0  0  0  0  0  0  0
   31.6000   38.6120   25.9680 C   0  0  0  0  0  0  0  0  0  0  0  0
   31.1510   38.1090   27.3460 C   0  0  0  0  0  0  0  0  0  0  0  0
   32.1880   37.3510   28.0100 O   0  0  0  0  0  0  0  0  0  0  0  0
   33.2440   38.9370   28.8750 H   0  0  0  0  0  0  0  0  0  0  0  0
   34.0900   37.3190   28.6390 H   0  0  0  0  0  0  0  0  0  0  0  0
   34.2740   37.6990   26.2110 H   0  0  0  0  0  0  0  0  0  0  0  0
   34.8900   39.1980   27.0210 H   0  0  0  0  0  0  0  0  0  0  0  0
   32.6940   40.3380   26.7370 H   0  0  0  0  0  0  0  0  0  0  0  0
   30.8040   39.2590   25.5290 H   0  0  0  0  0  0  0  0  0  0  0  0
   31.7580   37.7390   25.2890 H   0  0  0  0  0  0  0  0  0  0  0  0
   30.8490   38.9530   28.0060 H   0  0  0  0  0  0  0  0  0  0  0  0
   30.3360   37.3550   27.2550 H   0  0  0  0  0  0  0  0  0  0  0  0
   33.6330   35.1370   23.6600 C   0  0  0  0  0  0  0  0  0  0  0  0
   33.9740   33.6790   23.9320 C   0  0  0  0  0  0  0  0  0  0  0  0
   32.5540   34.0670   23.5570 C   0  0  0  0  0  0  0  0  0  0  0  0
   33.5960   35.8060   24.5490 H   0  0  0  0  0  0  0  0  0  0  0  0
   34.5780   33.0940   23.2280 H   0  0  0  0  0  0  0  0  0  0  0  0
   34.1840   33.4040   24.9780 H   0  0  0  0  0  0  0  0  0  0  0  0
   32.1500   33.7680   22.5820 H   0  0  0  0  0  0  0  0  0  0  0  0
   31.7760   34.0570   24.3380 H   0  0  0  0  0  0  0  0  0  0  0  0
  1  3  2  0  0  0  0
  1  7  1  0  0  0  0
  1 21  1  0  0  0  0
  2 12  1  0  0  0  0
  2 17  2  0  0  0  0
  2 18  1  0  0  0  0
  3 13  1  0  0  0  0
  3 14  1  0  0  0  0
  4 16  2  0  0  0  0
  4 19  1  0  0  0  0
  4 20  1  0  0  0  0
  5  6  1  0  0  0  0
  5 10  1  0  0  0  0
  5 11  2  0  0  0  0
  6 12  2  0  0  0  0
  6 22  1  0  0  0  0
  7  8  2  0  0  0  0
  7 27  1  0  0  0  0
  8  9  1  0  0  0  0
  8 23  1  0  0  0  0
  9 13  2  0  0  0  0
  9 24  1  0  0  0  0
 10 18  1  0  0  0  0
 10 19  2  0  0  0  0
 11 16  1  0  0  0  0
 11 25  1  0  0  0  0
 12 15  1  0  0  0  0
 13 15  1  0  0  0  0
 18 43  1  0  0  0  0
 20 26  1  0  0  0  0
 20 30  1  0  0  0  0
 28 29  1  0  0  0  0
 28 33  1  0  0  0  0
 28 34  1  0  0  0  0
 28 35  1  0  0  0  0
 29 30  1  0  0  0  0
 29 36  1  0  0  0  0
 29 37  1  0  0  0  0
 30 31  1  0  0  0  0
 30 38  1  0  0  0  0
 31 32  1  0  0  0  0
 31 39  1  0  0  0  0
 31 40  1  0  0  0  0
 32 33  1  0  0  0  0
 32 41  1  0  0  0  0
 32 42  1  0  0  0  0
 43 44  1  0  0  0  0
 43 45  1  0  0  0  0
 43 46  1  0  0  0  0
 44 45  1  0  0  0  0
 44 47  1  0  0  0  0
 44 48  1  0  0  0  0
 45 49  1  0  0  0  0
 45 50  1  0  0  0  0
M  END
$$$$
