54
 OpenBabel02232411163D
Structure written by MMmdl.
 44 47  0  0  0  0  0  0  0  0999 V2000
    3.9510  -49.9150    6.7060 O   0  0  0  0  0  0  0  0  0  0  0  0
    3.1380  -48.9890    6.8980 C   0  0  0  0  0  0  0  0  0  0  0  0
    3.3850  -47.8540    7.3160 O   0  5  0  0  0  0  0  0  0  0  0  0
    1.6730  -49.3360    6.5630 C   0  0  0  0  0  0  0  0  0  0  0  0
   -0.1590  -50.7010    6.4820 C   0  0  0  0  0  0  0  0  0  0  0  0
   -1.1160  -51.7150    6.6760 C   0  0  0  0  0  0  0  0  0  0  0  0
   -2.3680  -51.4600    6.1490 C   0  0  0  0  0  0  0  0  0  0  0  0
   -2.6990  -50.3120    5.4030 C   0  0  0  0  0  0  0  0  0  0  0  0
   -1.7350  -49.3380    5.1840 C   0  0  0  0  0  0  0  0  0  0  0  0
   -0.4740  -49.4750    5.7850 C   0  0  0  0  0  0  0  0  0  0  0  0
    0.6800  -48.6110    5.9130 C   0  0  0  0  0  0  0  0  0  0  0  0
    0.6830  -47.1830    5.4980 C   0  0  0  0  0  0  0  0  0  0  0  0
   -0.0950  -46.2780    6.4800 C   0  0  0  0  0  0  0  0  0  0  0  0
   -1.5850  -46.6150    6.4680 C   0  0  0  0  0  0  0  0  0  0  0  0
   -2.2660  -45.6850    7.3860 O   0  0  0  0  0  0  0  0  0  0  0  0
   -3.5070  -45.2490    6.9870 C   0  0  0  0  0  0  0  0  0  0  0  0
   -6.0430  -44.1570    6.4830 C   0  0  0  0  0  0  0  0  0  0  0  0
   -5.0430  -44.0570    5.5490 C   0  0  0  0  0  0  0  0  0  0  0  0
   -3.7560  -44.6080    5.7910 C   0  0  0  0  0  0  0  0  0  0  0  0
   -0.8880  -52.6350    7.2150 H   0  0  0  0  0  0  0  0  0  0  0  0
   -3.6300  -52.6350    6.3730 Cl  0  0  0  0  0  0  0  0  0  0  0  0
   -3.7040  -50.1960    4.9940 H   0  0  0  0  0  0  0  0  0  0  0  0
   -1.9700  -48.4910    4.5400 H   0  0  0  0  0  0  0  0  0  0  0  0
    0.2040  -47.1050    4.4940 H   0  0  0  0  0  0  0  0  0  0  0  0
    1.7290  -46.7930    5.4230 H   0  0  0  0  0  0  0  0  0  0  0  0
    0.3010  -46.4050    7.5140 H   0  0  0  0  0  0  0  0  0  0  0  0
    0.0410  -45.2120    6.1890 H   0  0  0  0  0  0  0  0  0  0  0  0
   -2.0310  -46.5250    5.4570 H   0  0  0  0  0  0  0  0  0  0  0  0
   -1.7990  -47.5980    6.9480 H   0  0  0  0  0  0  0  0  0  0  0  0
   -3.0050  -44.4940    5.0210 H   0  0  0  0  0  0  0  0  0  0  0  0
   -5.8120  -44.8460    7.7160 C   0  0  0  0  0  0  0  0  0  0  0  0
   -4.5470  -45.4370    7.9680 C   0  0  0  0  0  0  0  0  0  0  0  0
   -4.3550  -46.2320    9.1370 C   0  0  0  0  0  0  0  0  0  0  0  0
   -5.3730  -46.3730   10.0480 C   0  0  0  0  0  0  0  0  0  0  0  0
   -6.6120  -45.7050    9.8470 C   0  0  0  0  0  0  0  0  0  0  0  0
   -6.8380  -44.9830    8.7010 C   0  0  0  0  0  0  0  0  0  0  0  0
   -3.3900  -46.7270    9.2840 H   0  0  0  0  0  0  0  0  0  0  0  0
   -5.2630  -47.0160   10.9180 H   0  0  0  0  0  0  0  0  0  0  0  0
   -7.3890  -45.7920   10.6060 H   0  0  0  0  0  0  0  0  0  0  0  0
   -7.8030  -44.5200    8.5140 H   0  0  0  0  0  0  0  0  0  0  0  0
   -5.2150  -43.5470    4.5990 H   0  0  0  0  0  0  0  0  0  0  0  0
   -7.0280  -43.7290    6.2950 H   0  0  0  0  0  0  0  0  0  0  0  0
    1.1680  -50.6070    6.9110 N   0  0  0  0  0  0  0  0  0  0  0  0
    1.6530  -51.3520    7.3990 H   0  0  0  0  0  0  0  0  0  0  0  0
  1  2  2  0  0  0  0
  2  3  1  0  0  0  0
  2  4  1  0  0  0  0
  4 11  2  0  0  0  0
  4 43  1  0  0  0  0
  5  6  2  0  0  0  0
  5 10  1  0  0  0  0
  5 43  1  0  0  0  0
  6  7  1  0  0  0  0
  6 20  1  0  0  0  0
  7  8  2  0  0  0  0
  7 21  1  0  0  0  0
  8  9  1  0  0  0  0
  8 22  1  0  0  0  0
  9 10  2  0  0  0  0
  9 23  1  0  0  0  0
 10 11  1  0  0  0  0
 11 12  1  0  0  0  0
 12 24  1  0  0  0  0
 12 25  1  0  0  0  0
 12 13  1  0  0  0  0
 13 14  1  0  0  0  0
 13 26  1  0  0  0  0
 13 27  1  0  0  0  0
 14 15  1  0  0  0  0
 14 28  1  0  0  0  0
 14 29  1  0  0  0  0
 15 16  1  0  0  0  0
 16 19  2  0  0  0  0
 16 32  1  0  0  0  0
 17 18  2  0  0  0  0
 17 31  1  0  0  0  0
 17 42  1  0  0  0  0
 18 19  1  0  0  0  0
 18 41  1  0  0  0  0
 19 30  1  0  0  0  0
 31 32  2  0  0  0  0
 31 36  1  0  0  0  0
 32 33  1  0  0  0  0
 33 34  2  0  0  0  0
 33 37  1  0  0  0  0
 34 35  1  0  0  0  0
 34 38  1  0  0  0  0
 35 36  2  0  0  0  0
 35 39  1  0  0  0  0
 36 40  1  0  0  0  0
 43 44  1  0  0  0  0
M  CHG  1   3  -1
M  END
$$$$
