36 flip
                    3D
 Schrodinger Suite 2022-3.
 44 46  0  0  1  0  0  0  0  0999 V2000
    3.4530  -48.4470    7.1960 O   0  0  0  0  0  0  0  0  0  0  0  0
    3.0350  -49.3440    6.4520 C   0  0  0  0  0  0  0  0  0  0  0  0
    3.7170  -50.1090    5.7440 O   0  5  0  0  0  0  0  0  0  0  0  0
    1.5140  -49.5890    6.3930 C   0  0  0  0  0  0  0  0  0  0  0  0
   -0.3860  -50.8530    6.5590 C   0  0  0  0  0  0  0  0  0  0  0  0
   -1.3360  -51.8650    6.7750 C   0  0  0  0  0  0  0  0  0  0  0  0
   -2.6620  -51.5650    6.4990 C   0  0  0  0  0  0  0  0  0  0  0  0
   -3.0410  -50.2890    6.0180 C   0  0  0  0  0  0  0  0  0  0  0  0
   -2.1060  -49.2860    5.8030 C   0  0  0  0  0  0  0  0  0  0  0  0
   -0.7520  -49.5450    6.0740 C   0  0  0  0  0  0  0  0  0  0  0  0
    0.4660  -48.7680    5.9910 C   0  0  0  0  0  0  0  0  0  0  0  0
    0.5220  -47.3460    5.5580 C   0  0  0  0  0  0  0  0  0  0  0  0
    0.4760  -46.3630    6.7420 C   0  0  0  0  0  0  0  0  0  0  0  0
   -0.8820  -46.3210    7.4390 C   0  0  0  0  0  0  0  0  0  0  0  0
   -1.7360  -45.6420    6.4440 O   0  0  0  0  0  0  0  0  0  0  0  0
   -3.0180  -45.3380    6.7730 C   0  0  0  0  0  0  0  0  0  0  0  0
   -3.6750  -45.7480    7.9440 C   0  0  0  0  0  0  0  0  0  0  0  0
   -5.0090  -45.3770    8.1620 C   0  0  0  0  0  0  0  0  0  0  0  0
   -5.6350  -44.5770    7.1920 C   0  0  0  0  0  0  0  0  0  0  0  0
   -4.9860  -44.1570    6.0240 C   0  0  0  0  0  0  0  0  0  0  0  0
   -3.6710  -44.5380    5.8050 C   0  0  0  0  0  0  0  0  0  0  0  0
   -1.0510  -52.8480    7.1480 H   0  0  0  0  0  0  0  0  0  0  0  0
   -3.4350  -52.3180    6.6560 H   0  0  0  0  0  0  0  0  0  0  0  0
   -4.0960  -50.1010    5.8180 H   0  0  0  0  0  0  0  0  0  0  0  0
   -2.4270  -48.3120    5.4320 H   0  0  0  0  0  0  0  0  0  0  0  0
   -0.3580  -47.1300    4.8960 H   0  0  0  0  0  0  0  0  0  0  0  0
    1.4540  -47.1490    4.9760 H   0  0  0  0  0  0  0  0  0  0  0  0
    0.6930  -45.3350    6.3660 H   0  0  0  0  0  0  0  0  0  0  0  0
    1.2450  -46.6540    7.4970 H   0  0  0  0  0  0  0  0  0  0  0  0
   -0.8710  -45.6840    8.3480 H   0  0  0  0  0  0  0  0  0  0  0  0
   -1.3200  -47.3260    7.6150 H   0  0  0  0  0  0  0  0  0  0  0  0
   -3.1720  -46.3700    8.6790 H   0  0  0  0  0  0  0  0  0  0  0  0
   -3.1480  -44.2240    4.9110 H   0  0  0  0  0  0  0  0  0  0  0  0
    1.0060  -50.8520    6.7490 N   0  0  0  0  0  0  0  0  0  0  0  0
    1.5270  -51.6610    7.0690 H   0  0  0  0  0  0  0  0  0  0  0  0
   -5.5120  -43.5400    5.2930 H   0  0  0  0  0  0  0  0  0  0  0  0
   -7.2800  -44.0880    7.4030 Cl  0  0  0  0  0  0  0  0  0  0  0  0
   -5.7650  -45.8010    9.3910 C   0  0  0  0  0  0  0  0  0  0  0  0
   -5.7740  -44.9470   10.1140 H   0  0  0  0  0  0  0  0  0  0  0  0
   -6.8330  -46.0120    9.1170 H   0  0  0  0  0  0  0  0  0  0  0  0
   -5.2060  -47.0520   10.0730 C   0  0  0  0  0  0  0  0  0  0  0  0
   -5.9480  -47.4370   10.8080 H   0  0  0  0  0  0  0  0  0  0  0  0
   -5.0280  -47.8530    9.3180 H   0  0  0  0  0  0  0  0  0  0  0  0
   -4.2570  -46.8300   10.6050 H   0  0  0  0  0  0  0  0  0  0  0  0
  1  2  2  0  0  0  0
  2  3  1  0  0  0  0
  2  4  1  0  0  0  0
  4 11  2  0  0  0  0
  4 34  1  0  0  0  0
  5  6  1  0  0  0  0
  5 10  2  0  0  0  0
  5 34  1  0  0  0  0
  6  7  2  0  0  0  0
  6 22  1  0  0  0  0
  7  8  1  0  0  0  0
  7 23  1  0  0  0  0
  8  9  2  0  0  0  0
  8 24  1  0  0  0  0
  9 10  1  0  0  0  0
  9 25  1  0  0  0  0
 10 11  1  0  0  0  0
 11 12  1  0  0  0  0
 12 26  1  0  0  0  0
 12 27  1  0  0  0  0
 12 13  1  0  0  0  0
 13 14  1  0  0  0  0
 13 28  1  0  0  0  0
 13 29  1  0  0  0  0
 14 15  1  0  0  0  0
 14 30  1  0  0  0  0
 14 31  1  0  0  0  0
 15 16  1  0  0  0  0
 16 17  1  0  0  0  0
 16 21  2  0  0  0  0
 17 18  2  0  0  0  0
 17 32  1  0  0  0  0
 18 19  1  0  0  0  0
 18 38  1  0  0  0  0
 19 20  2  0  0  0  0
 19 37  1  0  0  0  0
 20 21  1  0  0  0  0
 20 36  1  0  0  0  0
 21 33  1  0  0  0  0
 34 35  1  0  0  0  0
 38 39  1  0  0  0  0
 38 40  1  0  0  0  0
 38 41  1  0  0  0  0
 41 42  1  0  0  0  0
 41 43  1  0  0  0  0
 41 44  1  0  0  0  0
M  CHG  1   3  -1
M  END
$$$$
