p38a_2r
 OpenBabel02232411163D
Structure written by MMmdl.
 56 59  0  0  0  0  0  0  0  0999 V2000
   36.3280   36.0040   15.8990 C   0  0  0  0  0  0  0  0  0  0  0  0
   34.5290   35.0240   21.4740 C   0  0  0  0  0  0  0  0  0  0  0  0
   35.6360   35.5600   17.0210 C   0  0  0  0  0  0  0  0  0  0  0  0
   34.1710   39.1180   24.0300 C   0  0  0  0  0  0  0  0  0  0  0  0
   34.7610   37.8820   21.6380 C   0  0  0  0  0  0  0  0  0  0  0  0
   35.1580   37.2140   20.4290 C   0  0  0  0  0  0  0  0  0  0  0  0
   37.6280   36.4780   16.1140 C   0  0  0  0  0  0  0  0  0  0  0  0
   38.2480   36.4850   17.3670 C   0  0  0  0  0  0  0  0  0  0  0  0
   37.5200   36.0640   18.4850 C   0  0  0  0  0  0  0  0  0  0  0  0
   34.3720   37.1280   22.7870 C   0  0  0  0  0  0  0  0  0  0  0  0
   34.7620   39.2980   21.7660 C   0  0  0  0  0  0  0  0  0  0  0  0
   35.0920   35.8640   20.3830 C   0  0  0  0  0  0  0  0  0  0  0  0
   36.2120   35.6020   18.3080 C   0  0  0  0  0  0  0  0  0  0  0  0
   34.4100   35.0680   16.9050 F   0  0  0  0  0  0  0  0  0  0  0  0
   35.4440   35.0250   19.3250 O   0  0  0  0  0  0  0  0  0  0  0  0
   34.4630   39.9280   22.9110 N   0  0  0  0  0  0  0  0  0  0  0  0
   34.3050   33.8350   21.3890 O   0  0  0  0  0  0  0  0  0  0  0  0
   34.2590   35.7240   22.7010 N   0  0  0  0  0  0  0  0  0  0  0  0
   34.1400   37.7380   23.9920 N   0  0  0  0  0  0  0  0  0  0  0  0
   33.8570   39.7620   25.2030 N   0  0  0  0  0  0  0  0  0  0  0  0
   35.8750   36.0060   14.9040 H   0  0  0  0  0  0  0  0  0  0  0  0
   35.5210   37.8220   19.5950 H   0  0  0  0  0  0  0  0  0  0  0  0
   39.2750   36.8430   17.4780 H   0  0  0  0  0  0  0  0  0  0  0  0
   37.9700   36.1180   19.4780 H   0  0  0  0  0  0  0  0  0  0  0  0
   35.0120   39.9270   20.8940 H   0  0  0  0  0  0  0  0  0  0  0  0
   33.9530   40.7940   25.2680 H   0  0  0  0  0  0  0  0  0  0  0  0
   38.2900   36.9800   15.0740 F   0  0  0  0  0  0  0  0  0  0  0  0
   32.4610   39.2110   28.7170 C   0  0  0  0  0  0  0  0  0  0  0  0
   32.6330   39.8640   27.3400 C   0  0  0  0  0  0  0  0  0  0  0  0
   33.6270   39.0430   26.4910 C   0  0  0  0  0  0  0  0  0  0  0  0
   34.9560   38.8540   27.2560 C   0  0  0  0  0  0  0  0  0  0  0  0
   34.6730   38.2430   28.6340 C   0  0  0  0  0  0  0  0  0  0  0  0
   33.7300   39.0400   29.3880 O   0  0  0  0  0  0  0  0  0  0  0  0
   31.9590   38.2190   28.6310 H   0  0  0  0  0  0  0  0  0  0  0  0
   31.9140   39.8850   29.4160 H   0  0  0  0  0  0  0  0  0  0  0  0
   33.0100   40.9060   27.4710 H   0  0  0  0  0  0  0  0  0  0  0  0
   31.6450   39.9130   26.8240 H   0  0  0  0  0  0  0  0  0  0  0  0
   33.1780   38.0330   26.2730 H   0  0  0  0  0  0  0  0  0  0  0  0
   35.6290   38.1710   26.6860 H   0  0  0  0  0  0  0  0  0  0  0  0
   35.4710   39.8370   27.3750 H   0  0  0  0  0  0  0  0  0  0  0  0
   34.2730   37.2070   28.5380 H   0  0  0  0  0  0  0  0  0  0  0  0
   35.5780   38.2720   29.2840 H   0  0  0  0  0  0  0  0  0  0  0  0
   33.6670   34.9600   23.8360 C   0  0  0  0  0  0  0  0  0  0  0  0
   34.0430   33.8990   23.7970 H   0  0  0  0  0  0  0  0  0  0  0  0
   34.0210   35.4140   24.8060 H   0  0  0  0  0  0  0  0  0  0  0  0
   32.1020   34.9420   23.8100 C   0  0  0  0  0  0  0  0  0  0  0  0
   31.7110   36.2430   23.3130 O   0  0  0  0  0  0  0  0  0  0  0  0
   30.9590   36.1620   22.6850 H   0  0  0  0  0  0  0  0  0  0  0  0
   31.5550   34.8050   25.2360 C   0  0  0  0  0  0  0  0  0  0  0  0
   31.8470   35.6790   25.8640 H   0  0  0  0  0  0  0  0  0  0  0  0
   30.4410   34.7500   25.2250 H   0  0  0  0  0  0  0  0  0  0  0  0
   31.9420   33.8790   25.7220 H   0  0  0  0  0  0  0  0  0  0  0  0
   31.5390   33.8520   22.8930 C   0  0  0  0  0  0  0  0  0  0  0  0
   30.4320   33.9550   22.8010 H   0  0  0  0  0  0  0  0  0  0  0  0
   31.9890   33.8990   21.8780 H   0  0  0  0  0  0  0  0  0  0  0  0
   31.7470   32.8430   23.3200 H   0  0  0  0  0  0  0  0  0  0  0  0
  1  3  2  0  0  0  0
  1  7  1  0  0  0  0
  1 21  1  0  0  0  0
  2 12  1  0  0  0  0
  2 17  2  0  0  0  0
  2 18  1  0  0  0  0
  3 13  1  0  0  0  0
  3 14  1  0  0  0  0
  4 16  2  0  0  0  0
  4 19  1  0  0  0  0
  4 20  1  0  0  0  0
  5  6  1  0  0  0  0
  5 10  1  0  0  0  0
  5 11  2  0  0  0  0
  6 12  2  0  0  0  0
  6 22  1  0  0  0  0
  7  8  2  0  0  0  0
  7 27  1  0  0  0  0
  8  9  1  0  0  0  0
  8 23  1  0  0  0  0
  9 13  2  0  0  0  0
  9 24  1  0  0  0  0
 10 18  1  0  0  0  0
 10 19  2  0  0  0  0
 11 16  1  0  0  0  0
 11 25  1  0  0  0  0
 12 15  1  0  0  0  0
 13 15  1  0  0  0  0
 18 43  1  0  0  0  0
 20 26  1  0  0  0  0
 20 30  1  0  0  0  0
 28 29  1  0  0  0  0
 28 33  1  0  0  0  0
 28 34  1  0  0  0  0
 28 35  1  0  0  0  0
 29 30  1  0  0  0  0
 29 36  1  0  0  0  0
 29 37  1  0  0  0  0
 30 31  1  0  0  0  0
 30 38  1  0  0  0  0
 31 32  1  0  0  0  0
 31 39  1  0  0  0  0
 31 40  1  0  0  0  0
 32 33  1  0  0  0  0
 32 41  1  0  0  0  0
 32 42  1  0  0  0  0
 43 44  1  0  0  0  0
 43 45  1  0  0  0  0
 43 46  1  0  0  0  0
 46 47  1  0  0  0  0
 46 49  1  0  0  0  0
 46 53  1  0  0  0  0
 47 48  1  0  0  0  0
 49 50  1  0  0  0  0
 49 51  1  0  0  0  0
 49 52  1  0  0  0  0
 53 54  1  0  0  0  0
 53 55  1  0  0  0  0
 53 56  1  0  0  0  0
M  END
$$$$
