18637-1
 OpenBabel02232411163D
Structure written by MMmdl.
 53 54  0  0  0  0  0  0  0  0999 V2000
   23.8260   12.6500   30.3540 C   0  0  0  0  0  0  0  0  0  0  0  0
   23.3780   11.2040   30.4600 C   0  0  0  0  0  0  0  0  0  0  0  0
   22.1300   11.2960   31.2610 O   0  0  0  0  0  0  0  0  0  0  0  0
   21.4980   10.1520   31.5980 C   0  0  0  0  0  0  0  0  0  0  0  0
   21.9780    8.9690   31.1490 N   0  0  0  0  0  0  0  0  0  0  0  0
   21.2500    7.8260   31.4560 C   0  0  0  0  0  0  0  0  0  0  0  0
   20.1000    7.8570   32.2410 C   0  0  0  0  0  0  0  0  0  0  0  0
   19.6160    9.1020   32.7220 C   0  0  0  0  0  0  0  0  0  0  0  0
   18.4780    9.1360   33.4870 N   0  0  0  0  0  0  0  0  0  0  0  0
   20.3170   10.3040   32.3840 C   0  0  0  0  0  0  0  0  0  0  0  0
   19.8920   11.6000   32.7420 C   0  0  0  0  0  0  0  0  0  0  0  0
   19.5890   12.6920   32.9920 N   0  0  0  0  0  0  0  0  0  0  0  0
   21.8070    6.6720   30.8680 N   0  0  0  0  0  0  0  0  0  0  0  0
   21.2060    5.3940   30.7740 C   0  0  0  0  0  0  0  0  0  0  0  0
   20.1320    5.1370   31.2770 O   0  0  0  0  0  0  0  0  0  0  0  0
   22.0050    4.4150   29.9220 C   0  0  0  0  0  0  0  0  0  0  0  0
   23.3260    4.0600   30.5330 C   0  0  0  0  0  0  0  0  0  0  0  0
   24.4640    4.8720   30.3330 C   0  0  0  0  0  0  0  0  0  0  0  0
   24.2210    5.9580   29.5090 O   0  0  0  0  0  0  0  0  0  0  0  0
   25.2330    6.9960   29.4100 C   0  0  0  0  0  0  0  0  0  0  0  0
   25.7070    4.5750   30.9100 C   0  0  0  0  0  0  0  0  0  0  0  0
   25.8410    3.4290   31.6970 C   0  0  0  0  0  0  0  0  0  0  0  0
   24.6960    2.5960   31.8930 C   0  0  0  0  0  0  0  0  0  0  0  0
   23.4680    2.9050   31.3160 C   0  0  0  0  0  0  0  0  0  0  0  0
   24.9440    1.5180   32.7270 O   0  0  0  0  0  0  0  0  0  0  0  0
   23.9950    0.4210   32.7040 C   0  0  0  0  0  0  0  0  0  0  0  0
   27.0650    3.0790   32.3380 N   0  0  0  0  0  0  0  0  0  0  0  0
   28.3600    3.3370   31.8220 C   0  0  0  0  0  0  0  0  0  0  0  0
   28.5080    3.9030   30.7520 O   0  0  0  0  0  0  0  0  0  0  0  0
   29.4720    2.8570   32.7020 C   0  0  0  0  0  0  0  0  0  0  0  0
   24.0690   13.0760   31.3530 H   0  0  0  0  0  0  0  0  0  0  0  0
   23.0370   13.2790   29.8780 H   0  0  0  0  0  0  0  0  0  0  0  0
   24.7410   12.6950   29.7110 H   0  0  0  0  0  0  0  0  0  0  0  0
   23.1120   10.7680   29.4720 H   0  0  0  0  0  0  0  0  0  0  0  0
   24.1040   10.5710   31.0180 H   0  0  0  0  0  0  0  0  0  0  0  0
   19.5520    6.9420   32.4750 H   0  0  0  0  0  0  0  0  0  0  0  0
   18.0750   10.0180   33.8020 H   0  0  0  0  0  0  0  0  0  0  0  0
   17.9830    8.2620   33.7500 H   0  0  0  0  0  0  0  0  0  0  0  0
   22.7290    6.8170   30.3840 H   0  0  0  0  0  0  0  0  0  0  0  0
   21.3920    3.4890   29.7770 H   0  0  0  0  0  0  0  0  0  0  0  0
   22.1770    4.8890   28.9160 H   0  0  0  0  0  0  0  0  0  0  0  0
   25.4940    7.3810   30.4190 H   0  0  0  0  0  0  0  0  0  0  0  0
   26.1160    6.6040   28.8630 H   0  0  0  0  0  0  0  0  0  0  0  0
   24.6940    7.7680   28.8130 H   0  0  0  0  0  0  0  0  0  0  0  0
   26.5660    5.2340   30.7470 H   0  0  0  0  0  0  0  0  0  0  0  0
   22.6070    2.2490   31.4700 H   0  0  0  0  0  0  0  0  0  0  0  0
   24.5120   -0.3300   33.3480 H   0  0  0  0  0  0  0  0  0  0  0  0
   23.0320    0.7420   33.1570 H   0  0  0  0  0  0  0  0  0  0  0  0
   23.8720    0.0440   31.6660 H   0  0  0  0  0  0  0  0  0  0  0  0
   26.9880    2.4500   33.1550 H   0  0  0  0  0  0  0  0  0  0  0  0
   29.5070    1.7370   32.7380 H   0  0  0  0  0  0  0  0  0  0  0  0
   30.4640    3.2140   32.3230 H   0  0  0  0  0  0  0  0  0  0  0  0
   29.3630    3.2270   33.7540 H   0  0  0  0  0  0  0  0  0  0  0  0
  1  2  1  0  0  0  0
  1 31  1  0  0  0  0
  1 32  1  0  0  0  0
  1 33  1  0  0  0  0
  2  3  1  0  0  0  0
  2 34  1  0  0  0  0
  2 35  1  0  0  0  0
  3  4  1  0  0  0  0
  4 10  2  0  0  0  0
  4  5  1  0  0  0  0
  5  6  2  0  0  0  0
  6  7  1  0  0  0  0
  6 13  1  0  0  0  0
  7  8  2  0  0  0  0
  7 36  1  0  0  0  0
  8  9  1  0  0  0  0
  8 10  1  0  0  0  0
  9 37  1  0  0  0  0
  9 38  1  0  0  0  0
 10 11  1  0  0  0  0
 11 12  3  0  0  0  0
 13 14  1  0  0  0  0
 13 39  1  0  0  0  0
 14 15  2  0  0  0  0
 14 16  1  0  0  0  0
 16 17  1  0  0  0  0
 16 40  1  0  0  0  0
 16 41  1  0  0  0  0
 17 24  2  0  0  0  0
 17 18  1  0  0  0  0
 18 19  1  0  0  0  0
 18 21  2  0  0  0  0
 19 20  1  0  0  0  0
 20 42  1  0  0  0  0
 20 43  1  0  0  0  0
 20 44  1  0  0  0  0
 21 22  1  0  0  0  0
 21 45  1  0  0  0  0
 22 23  2  0  0  0  0
 22 27  1  0  0  0  0
 23 24  1  0  0  0  0
 23 25  1  0  0  0  0
 24 46  1  0  0  0  0
 25 26  1  0  0  0  0
 26 47  1  0  0  0  0
 26 48  1  0  0  0  0
 26 49  1  0  0  0  0
 27 28  1  0  0  0  0
 27 50  1  0  0  0  0
 28 29  2  0  0  0  0
 28 30  1  0  0  0  0
 30 51  1  0  0  0  0
 30 52  1  0  0  0  0
 30 53  1  0  0  0  0
M  END
$$$$
