p38a_2n
 OpenBabel02232411163D
Structure written by MMmdl.
 53 56  0  0  0  0  0  0  0  0999 V2000
   36.3480   36.0040   15.8550 C   0  0  0  0  0  0  0  0  0  0  0  0
   34.4790   35.0460   21.3790 C   0  0  0  0  0  0  0  0  0  0  0  0
   35.6860   35.5390   16.9870 C   0  0  0  0  0  0  0  0  0  0  0  0
   34.0250   39.1710   23.8650 C   0  0  0  0  0  0  0  0  0  0  0  0
   34.7560   37.9050   21.5250 C   0  0  0  0  0  0  0  0  0  0  0  0
   35.2200   37.2130   20.3530 C   0  0  0  0  0  0  0  0  0  0  0  0
   37.6390   36.5110   16.0510 C   0  0  0  0  0  0  0  0  0  0  0  0
   38.2780   36.5300   17.2940 C   0  0  0  0  0  0  0  0  0  0  0  0
   37.5780   36.0900   18.4230 C   0  0  0  0  0  0  0  0  0  0  0  0
   34.2520   37.1720   22.6400 C   0  0  0  0  0  0  0  0  0  0  0  0
   34.7850   39.3190   21.6480 C   0  0  0  0  0  0  0  0  0  0  0  0
   35.1230   35.8650   20.3140 C   0  0  0  0  0  0  0  0  0  0  0  0
   36.2800   35.5960   18.2650 C   0  0  0  0  0  0  0  0  0  0  0  0
   34.4720   35.0130   16.8890 F   0  0  0  0  0  0  0  0  0  0  0  0
   35.5450   35.0060   19.3010 O   0  0  0  0  0  0  0  0  0  0  0  0
   34.4330   39.9640   22.7700 N   0  0  0  0  0  0  0  0  0  0  0  0
   34.2680   33.8550   21.3110 O   0  0  0  0  0  0  0  0  0  0  0  0
   34.1120   35.7750   22.5650 N   0  0  0  0  0  0  0  0  0  0  0  0
   33.8970   37.7990   23.8100 N   0  0  0  0  0  0  0  0  0  0  0  0
   33.7710   39.8440   25.0370 N   0  0  0  0  0  0  0  0  0  0  0  0
   35.8780   35.9990   14.8690 H   0  0  0  0  0  0  0  0  0  0  0  0
   35.6500   37.8080   19.5440 H   0  0  0  0  0  0  0  0  0  0  0  0
   39.2980   36.9120   17.3910 H   0  0  0  0  0  0  0  0  0  0  0  0
   38.0430   36.1580   19.4090 H   0  0  0  0  0  0  0  0  0  0  0  0
   35.0980   39.9360   20.7910 H   0  0  0  0  0  0  0  0  0  0  0  0
   33.8060   40.8820   25.0370 H   0  0  0  0  0  0  0  0  0  0  0  0
   38.2720   37.0300   15.0010 F   0  0  0  0  0  0  0  0  0  0  0  0
   33.5280   37.6320   28.1770 C   0  0  0  0  0  0  0  0  0  0  0  0
   34.1540   38.2100   26.9040 C   0  0  0  0  0  0  0  0  0  0  0  0
   33.2070   39.2600   26.2890 C   0  0  0  0  0  0  0  0  0  0  0  0
   31.8010   38.6620   26.0750 C   0  0  0  0  0  0  0  0  0  0  0  0
   31.2860   38.0690   27.3920 C   0  0  0  0  0  0  0  0  0  0  0  0
   32.2110   37.0880   27.9150 O   0  0  0  0  0  0  0  0  0  0  0  0
   33.4440   38.4060   28.9740 H   0  0  0  0  0  0  0  0  0  0  0  0
   34.0870   36.7360   28.5320 H   0  0  0  0  0  0  0  0  0  0  0  0
   34.3370   37.3850   26.1730 H   0  0  0  0  0  0  0  0  0  0  0  0
   35.1340   38.6860   27.1510 H   0  0  0  0  0  0  0  0  0  0  0  0
   33.1270   40.1380   26.9970 H   0  0  0  0  0  0  0  0  0  0  0  0
   31.1010   39.4510   25.7140 H   0  0  0  0  0  0  0  0  0  0  0  0
   31.8520   37.8490   25.3120 H   0  0  0  0  0  0  0  0  0  0  0  0
   31.1230   38.8580   28.1590 H   0  0  0  0  0  0  0  0  0  0  0  0
   30.3680   37.4600   27.2290 H   0  0  0  0  0  0  0  0  0  0  0  0
   33.4820   35.0310   23.7080 C   0  0  0  0  0  0  0  0  0  0  0  0
   33.7240   33.9400   23.5960 H   0  0  0  0  0  0  0  0  0  0  0  0
   33.9290   35.4170   24.6680 H   0  0  0  0  0  0  0  0  0  0  0  0
   31.9620   35.2360   23.7450 C   0  0  0  0  0  0  0  0  0  0  0  0
   31.7230   36.3270   23.7300 H   0  0  0  0  0  0  0  0  0  0  0  0
   31.4750   34.7690   22.8550 H   0  0  0  0  0  0  0  0  0  0  0  0
   31.3520   34.6140   25.0140 C   0  0  0  0  0  0  0  0  0  0  0  0
   30.3560   35.0730   25.2170 H   0  0  0  0  0  0  0  0  0  0  0  0
   31.2780   33.5040   24.9260 H   0  0  0  0  0  0  0  0  0  0  0  0
   32.1870   34.7900   26.1640 O   0  0  0  0  0  0  0  0  0  0  0  0
   32.2680   35.7620   26.3770 H   0  0  0  0  0  0  0  0  0  0  0  0
  1  3  2  0  0  0  0
  1  7  1  0  0  0  0
  1 21  1  0  0  0  0
  2 12  1  0  0  0  0
  2 17  2  0  0  0  0
  2 18  1  0  0  0  0
  3 13  1  0  0  0  0
  3 14  1  0  0  0  0
  4 16  2  0  0  0  0
  4 19  1  0  0  0  0
  4 20  1  0  0  0  0
  5  6  1  0  0  0  0
  5 10  1  0  0  0  0
  5 11  2  0  0  0  0
  6 12  2  0  0  0  0
  6 22  1  0  0  0  0
  7  8  2  0  0  0  0
  7 27  1  0  0  0  0
  8  9  1  0  0  0  0
  8 23  1  0  0  0  0
  9 13  2  0  0  0  0
  9 24  1  0  0  0  0
 10 18  1  0  0  0  0
 10 19  2  0  0  0  0
 11 16  1  0  0  0  0
 11 25  1  0  0  0  0
 12 15  1  0  0  0  0
 13 15  1  0  0  0  0
 18 43  1  0  0  0  0
 20 26  1  0  0  0  0
 20 30  1  0  0  0  0
 28 29  1  0  0  0  0
 28 33  1  0  0  0  0
 28 34  1  0  0  0  0
 28 35  1  0  0  0  0
 29 30  1  0  0  0  0
 29 36  1  0  0  0  0
 29 37  1  0  0  0  0
 30 31  1  0  0  0  0
 30 38  1  0  0  0  0
 31 32  1  0  0  0  0
 31 39  1  0  0  0  0
 31 40  1  0  0  0  0
 32 33  1  0  0  0  0
 32 41  1  0  0  0  0
 32 42  1  0  0  0  0
 43 44  1  0  0  0  0
 43 45  1  0  0  0  0
 43 46  1  0  0  0  0
 46 47  1  0  0  0  0
 46 48  1  0  0  0  0
 46 49  1  0  0  0  0
 49 50  1  0  0  0  0
 49 51  1  0  0  0  0
 49 52  1  0  0  0  0
 52 53  1  0  0  0  0
M  END
$$$$
