46
 OpenBabel02232411163D
Structure written by MMmdl.
 45 48  0  0  0  0  0  0  0  0999 V2000
    3.5290  -48.3960    7.1550 O   0  0  0  0  0  0  0  0  0  0  0  0
    3.1360  -49.3880    6.5270 C   0  0  0  0  0  0  0  0  0  0  0  0
    3.8470  -50.2580    5.9850 O   0  5  0  0  0  0  0  0  0  0  0  0
    1.6190  -49.6170    6.3980 C   0  0  0  0  0  0  0  0  0  0  0  0
   -0.3120  -50.8400    6.5410 C   0  0  0  0  0  0  0  0  0  0  0  0
   -1.2940  -51.8180    6.7750 C   0  0  0  0  0  0  0  0  0  0  0  0
   -2.6000  -51.5070    6.4280 C   0  0  0  0  0  0  0  0  0  0  0  0
   -2.9300  -50.2540    5.8590 C   0  0  0  0  0  0  0  0  0  0  0  0
   -1.9650  -49.2830    5.6280 C   0  0  0  0  0  0  0  0  0  0  0  0
   -0.6300  -49.5550    5.9710 C   0  0  0  0  0  0  0  0  0  0  0  0
    0.6050  -48.8020    5.9050 C   0  0  0  0  0  0  0  0  0  0  0  0
    0.6950  -47.4010    5.4140 C   0  0  0  0  0  0  0  0  0  0  0  0
    0.6510  -46.3690    6.5560 C   0  0  0  0  0  0  0  0  0  0  0  0
   -0.6590  -46.3920    7.3390 C   0  0  0  0  0  0  0  0  0  0  0  0
   -1.6540  -45.8370    6.4020 O   0  0  0  0  0  0  0  0  0  0  0  0
   -2.9120  -45.6100    6.8850 C   0  0  0  0  0  0  0  0  0  0  0  0
   -5.0150  -44.4750    6.4520 C   0  0  0  0  0  0  0  0  0  0  0  0
   -3.7210  -44.8170    6.0450 C   0  0  0  0  0  0  0  0  0  0  0  0
   -1.0470  -52.7830    7.2160 H   0  0  0  0  0  0  0  0  0  0  0  0
   -3.3970  -52.2330    6.5980 H   0  0  0  0  0  0  0  0  0  0  0  0
   -3.9720  -50.0580    5.6040 H   0  0  0  0  0  0  0  0  0  0  0  0
   -2.2480  -48.3230    5.1930 H   0  0  0  0  0  0  0  0  0  0  0  0
   -0.1760  -47.1970    4.7380 H   0  0  0  0  0  0  0  0  0  0  0  0
    1.6370  -47.2410    4.8370 H   0  0  0  0  0  0  0  0  0  0  0  0
    0.7770  -45.3490    6.1260 H   0  0  0  0  0  0  0  0  0  0  0  0
    1.4790  -46.5780    7.2760 H   0  0  0  0  0  0  0  0  0  0  0  0
   -0.6290  -45.7130    8.2180 H   0  0  0  0  0  0  0  0  0  0  0  0
   -0.9920  -47.4210    7.5920 H   0  0  0  0  0  0  0  0  0  0  0  0
   -3.3440  -44.4690    5.0880 H   0  0  0  0  0  0  0  0  0  0  0  0
   -3.3880  -46.1160    8.1130 C   0  0  0  0  0  0  0  0  0  0  0  0
   -5.6450  -43.8550    5.8160 H   0  0  0  0  0  0  0  0  0  0  0  0
   -2.7970  -46.7600    8.7560 H   0  0  0  0  0  0  0  0  0  0  0  0
    1.0690  -50.8530    6.7930 N   0  0  0  0  0  0  0  0  0  0  0  0
   -6.6360  -45.2340    9.7810 C   0  0  0  0  0  0  0  0  0  0  0  0
   -5.4020  -46.1720    9.7410 C   0  0  0  0  0  0  0  0  0  0  0  0
   -4.6780  -45.7730    8.4840 C   0  0  0  0  0  0  0  0  0  0  0  0
   -5.4870  -44.9400    7.6750 C   0  0  0  0  0  0  0  0  0  0  0  0
   -6.8110  -44.6800    8.3380 C   0  0  0  0  0  0  0  0  0  0  0  0
   -7.0540  -43.5990    8.3430 H   0  0  0  0  0  0  0  0  0  0  0  0
   -7.6250  -45.2290    7.8090 H   0  0  0  0  0  0  0  0  0  0  0  0
   -7.5380  -45.7830   10.1090 H   0  0  0  0  0  0  0  0  0  0  0  0
   -6.4490  -44.3990   10.4870 H   0  0  0  0  0  0  0  0  0  0  0  0
   -5.7250  -47.2390    9.6760 H   0  0  0  0  0  0  0  0  0  0  0  0
   -4.7680  -46.0500   10.6390 H   0  0  0  0  0  0  0  0  0  0  0  0
    1.5590  -51.6510    7.1800 H   0  0  0  0  0  0  0  0  0  0  0  0
  1  2  2  0  0  0  0
  2  3  1  0  0  0  0
  2  4  1  0  0  0  0
  4 11  2  0  0  0  0
  4 33  1  0  0  0  0
  5  6  2  0  0  0  0
  5 10  1  0  0  0  0
  5 33  1  0  0  0  0
  6  7  1  0  0  0  0
  6 19  1  0  0  0  0
  7  8  2  0  0  0  0
  7 20  1  0  0  0  0
  8  9  1  0  0  0  0
  8 21  1  0  0  0  0
  9 10  2  0  0  0  0
  9 22  1  0  0  0  0
 10 11  1  0  0  0  0
 11 12  1  0  0  0  0
 12 23  1  0  0  0  0
 12 24  1  0  0  0  0
 12 13  1  0  0  0  0
 13 14  1  0  0  0  0
 13 25  1  0  0  0  0
 13 26  1  0  0  0  0
 14 15  1  0  0  0  0
 14 27  1  0  0  0  0
 14 28  1  0  0  0  0
 15 16  1  0  0  0  0
 16 18  2  0  0  0  0
 16 30  1  0  0  0  0
 17 18  1  0  0  0  0
 17 31  1  0  0  0  0
 17 37  2  0  0  0  0
 18 29  1  0  0  0  0
 30 32  1  0  0  0  0
 30 36  2  0  0  0  0
 33 45  1  0  0  0  0
 34 35  1  0  0  0  0
 34 38  1  0  0  0  0
 34 41  1  0  0  0  0
 34 42  1  0  0  0  0
 35 36  1  0  0  0  0
 35 43  1  0  0  0  0
 35 44  1  0  0  0  0
 36 37  1  0  0  0  0
 37 38  1  0  0  0  0
 38 39  1  0  0  0  0
 38 40  1  0  0  0  0
M  CHG  1   3  -1
M  END
$$$$
