66
 OpenBabel02232411163D
Structure written by MMmdl.
 43 46  0  0  0  0  0  0  0  0999 V2000
    3.2510  -47.8450    7.0730 O   0  0  0  0  0  0  0  0  0  0  0  0
    2.9590  -48.8990    6.4950 C   0  0  0  0  0  0  0  0  0  0  0  0
    3.7410  -49.7460    6.0230 O   0  5  0  0  0  0  0  0  0  0  0  0
    1.4770  -49.2960    6.3920 C   0  0  0  0  0  0  0  0  0  0  0  0
    1.1400  -50.9310    6.9220 S   0  0  0  0  0  0  0  0  0  0  0  0
   -0.5690  -50.7760    6.6310 C   0  0  0  0  0  0  0  0  0  0  0  0
   -1.6010  -51.6860    6.8470 C   0  0  0  0  0  0  0  0  0  0  0  0
   -2.9100  -51.3750    6.4990 C   0  0  0  0  0  0  0  0  0  0  0  0
   -3.1860  -50.1140    5.9400 C   0  0  0  0  0  0  0  0  0  0  0  0
   -2.1760  -49.1760    5.7400 C   0  0  0  0  0  0  0  0  0  0  0  0
   -0.8490  -49.4920    6.0860 C   0  0  0  0  0  0  0  0  0  0  0  0
    0.3520  -48.6540    5.9840 C   0  0  0  0  0  0  0  0  0  0  0  0
    0.2700  -47.2450    5.4880 C   0  0  0  0  0  0  0  0  0  0  0  0
    0.2470  -46.2130    6.6280 C   0  0  0  0  0  0  0  0  0  0  0  0
   -0.9170  -46.3680    7.5990 C   0  0  0  0  0  0  0  0  0  0  0  0
   -2.0910  -45.8030    6.9040 O   0  0  0  0  0  0  0  0  0  0  0  0
   -3.2800  -45.8120    7.5750 C   0  0  0  0  0  0  0  0  0  0  0  0
   -5.8180  -45.5960    8.7650 C   0  0  0  0  0  0  0  0  0  0  0  0
   -4.8300  -46.3480    9.3500 C   0  0  0  0  0  0  0  0  0  0  0  0
   -3.5410  -46.4610    8.7670 C   0  0  0  0  0  0  0  0  0  0  0  0
   -1.3030  -53.2300    7.5820 Cl  0  0  0  0  0  0  0  0  0  0  0  0
   -3.7200  -52.0870    6.6570 H   0  0  0  0  0  0  0  0  0  0  0  0
   -4.2170  -49.8760    5.6680 H   0  0  0  0  0  0  0  0  0  0  0  0
   -2.4380  -48.2030    5.3210 H   0  0  0  0  0  0  0  0  0  0  0  0
   -0.6590  -47.1180    4.8740 H   0  0  0  0  0  0  0  0  0  0  0  0
    1.1500  -47.0160    4.8370 H   0  0  0  0  0  0  0  0  0  0  0  0
    0.1990  -45.1890    6.1880 H   0  0  0  0  0  0  0  0  0  0  0  0
    1.1930  -46.3130    7.2230 H   0  0  0  0  0  0  0  0  0  0  0  0
   -0.7780  -45.7400    8.5060 H   0  0  0  0  0  0  0  0  0  0  0  0
   -1.1530  -47.4300    7.8200 H   0  0  0  0  0  0  0  0  0  0  0  0
   -2.8090  -47.0740    9.2820 H   0  0  0  0  0  0  0  0  0  0  0  0
   -5.5820  -44.9480    7.5130 C   0  0  0  0  0  0  0  0  0  0  0  0
   -4.3060  -45.0510    6.8980 C   0  0  0  0  0  0  0  0  0  0  0  0
   -4.0870  -44.4500    5.6260 C   0  0  0  0  0  0  0  0  0  0  0  0
   -5.0940  -43.7580    4.9970 C   0  0  0  0  0  0  0  0  0  0  0  0
   -6.3740  -43.6580    5.6050 C   0  0  0  0  0  0  0  0  0  0  0  0
   -6.6150  -44.2340    6.8290 C   0  0  0  0  0  0  0  0  0  0  0  0
   -3.1150  -44.5750    5.1480 H   0  0  0  0  0  0  0  0  0  0  0  0
   -4.9280  -43.2900    4.0290 H   0  0  0  0  0  0  0  0  0  0  0  0
   -7.1630  -43.1250    5.0790 H   0  0  0  0  0  0  0  0  0  0  0  0
   -7.6010  -44.1690    7.2890 H   0  0  0  0  0  0  0  0  0  0  0  0
   -5.0280  -46.8830   10.2810 H   0  0  0  0  0  0  0  0  0  0  0  0
   -6.7990  -45.5030    9.2290 H   0  0  0  0  0  0  0  0  0  0  0  0
  1  2  2  0  0  0  0
  2  3  1  0  0  0  0
  2  4  1  0  0  0  0
  4  5  1  0  0  0  0
  4 12  2  0  0  0  0
  5  6  1  0  0  0  0
  6  7  2  0  0  0  0
  6 11  1  0  0  0  0
  7  8  1  0  0  0  0
  7 21  1  0  0  0  0
  8  9  2  0  0  0  0
  8 22  1  0  0  0  0
  9 10  1  0  0  0  0
  9 23  1  0  0  0  0
 10 11  2  0  0  0  0
 10 24  1  0  0  0  0
 11 12  1  0  0  0  0
 12 13  1  0  0  0  0
 13 25  1  0  0  0  0
 13 26  1  0  0  0  0
 13 14  1  0  0  0  0
 14 15  1  0  0  0  0
 14 27  1  0  0  0  0
 14 28  1  0  0  0  0
 15 16  1  0  0  0  0
 15 29  1  0  0  0  0
 15 30  1  0  0  0  0
 16 17  1  0  0  0  0
 17 20  2  0  0  0  0
 17 33  1  0  0  0  0
 18 19  2  0  0  0  0
 18 32  1  0  0  0  0
 18 43  1  0  0  0  0
 19 20  1  0  0  0  0
 19 42  1  0  0  0  0
 20 31  1  0  0  0  0
 32 33  2  0  0  0  0
 32 37  1  0  0  0  0
 33 34  1  0  0  0  0
 34 35  2  0  0  0  0
 34 38  1  0  0  0  0
 35 36  1  0  0  0  0
 35 39  1  0  0  0  0
 36 37  2  0  0  0  0
 36 40  1  0  0  0  0
 37 41  1  0  0  0  0
M  CHG  1   3  -1
M  END
$$$$
