p38a_2aa
 OpenBabel02232411163D
Structure written by MMmdl.
 43 45  0  0  0  0  0  0  0  0999 V2000
   38.2770   36.5260   17.1560 C   0  0  0  0  0  0  0  0  0  0  0  0
   34.5670   35.1270   21.2280 C   0  0  0  0  0  0  0  0  0  0  0  0
   37.4830   36.0660   18.2030 C   0  0  0  0  0  0  0  0  0  0  0  0
   34.1590   39.2670   23.6870 C   0  0  0  0  0  0  0  0  0  0  0  0
   33.5940   39.3030   26.1470 C   0  0  0  0  0  0  0  0  0  0  0  0
   34.6570   38.0080   21.2980 C   0  0  0  0  0  0  0  0  0  0  0  0
   35.0150   37.3180   20.0890 C   0  0  0  0  0  0  0  0  0  0  0  0
   37.6410   36.6870   15.9180 C   0  0  0  0  0  0  0  0  0  0  0  0
   36.2960   36.3830   15.6970 C   0  0  0  0  0  0  0  0  0  0  0  0
   35.5230   35.9080   16.7610 C   0  0  0  0  0  0  0  0  0  0  0  0
   34.3500   37.2650   22.4770 C   0  0  0  0  0  0  0  0  0  0  0  0
   34.6130   39.4240   21.3950 C   0  0  0  0  0  0  0  0  0  0  0  0
   35.0130   35.9660   20.0840 C   0  0  0  0  0  0  0  0  0  0  0  0
   36.1230   35.7420   18.0120 C   0  0  0  0  0  0  0  0  0  0  0  0
   33.9590   35.1190   23.6800 C   0  0  0  0  0  0  0  0  0  0  0  0
   38.0030   35.9310   19.4170 F   0  0  0  0  0  0  0  0  0  0  0  0
   35.3880   35.1270   19.0370 O   0  0  0  0  0  0  0  0  0  0  0  0
   34.3710   40.0660   22.5490 N   0  0  0  0  0  0  0  0  0  0  0  0
   34.4220   33.9240   21.2090 O   0  0  0  0  0  0  0  0  0  0  0  0
   34.2980   35.8640   22.4360 N   0  0  0  0  0  0  0  0  0  0  0  0
   34.0930   37.8920   23.6750 N   0  0  0  0  0  0  0  0  0  0  0  0
   34.0770   39.9400   24.8920 N   0  0  0  0  0  0  0  0  0  0  0  0
   39.3290   36.7890   17.3030 H   0  0  0  0  0  0  0  0  0  0  0  0
   34.4680   39.8240   27.3170 C   0  0  0  0  0  0  0  0  0  0  0  0
   35.2950   37.9150   19.2190 H   0  0  0  0  0  0  0  0  0  0  0  0
   35.8350   36.5290   14.7170 H   0  0  0  0  0  0  0  0  0  0  0  0
   34.4610   35.6880   16.6100 H   0  0  0  0  0  0  0  0  0  0  0  0
   34.7720   40.0440   20.4970 H   0  0  0  0  0  0  0  0  0  0  0  0
   34.6720   35.3990   24.5030 H   0  0  0  0  0  0  0  0  0  0  0  0
   32.9170   35.3780   24.0100 H   0  0  0  0  0  0  0  0  0  0  0  0
   34.0230   34.0140   23.5010 H   0  0  0  0  0  0  0  0  0  0  0  0
   33.9730   40.9720   24.8720 H   0  0  0  0  0  0  0  0  0  0  0  0
   38.3470   37.1970   14.9110 F   0  0  0  0  0  0  0  0  0  0  0  0
   32.0910   39.6450   26.3370 C   0  0  0  0  0  0  0  0  0  0  0  0
   31.5390   38.9610   27.4620 O   0  0  0  0  0  0  0  0  0  0  0  0
   31.5600   37.9810   27.3010 H   0  0  0  0  0  0  0  0  0  0  0  0
   31.9720   40.7200   26.6150 H   0  0  0  0  0  0  0  0  0  0  0  0
   31.5100   39.3870   25.4220 H   0  0  0  0  0  0  0  0  0  0  0  0
   34.1170   41.1470   27.7520 O   0  0  0  0  0  0  0  0  0  0  0  0
   34.2950   39.1990   28.2260 H   0  0  0  0  0  0  0  0  0  0  0  0
   35.5440   39.8310   27.0220 H   0  0  0  0  0  0  0  0  0  0  0  0
   33.9750   41.7260   26.9420 H   0  0  0  0  0  0  0  0  0  0  0  0
   33.7290   38.1840   26.0880 H   0  0  0  0  0  0  0  0  0  0  0  0
  1  3  2  0  0  0  0
  1  8  1  0  0  0  0
  1 23  1  0  0  0  0
  2 13  1  0  0  0  0
  2 19  2  0  0  0  0
  2 20  1  0  0  0  0
  3 14  1  0  0  0  0
  3 16  1  0  0  0  0
  4 18  2  0  0  0  0
  4 21  1  0  0  0  0
  4 22  1  0  0  0  0
  5 22  1  0  0  0  0
  5 24  1  0  0  0  0
  5 34  1  0  0  0  0
  5 43  1  0  0  0  0
  6  7  1  0  0  0  0
  6 11  1  0  0  0  0
  6 12  2  0  0  0  0
  7 13  2  0  0  0  0
  7 25  1  0  0  0  0
  8  9  2  0  0  0  0
  8 33  1  0  0  0  0
  9 10  1  0  0  0  0
  9 26  1  0  0  0  0
 10 14  2  0  0  0  0
 10 27  1  0  0  0  0
 11 20  1  0  0  0  0
 11 21  2  0  0  0  0
 12 18  1  0  0  0  0
 12 28  1  0  0  0  0
 13 17  1  0  0  0  0
 14 17  1  0  0  0  0
 15 20  1  0  0  0  0
 15 29  1  0  0  0  0
 15 30  1  0  0  0  0
 15 31  1  0  0  0  0
 22 32  1  0  0  0  0
 24 39  1  0  0  0  0
 24 40  1  0  0  0  0
 24 41  1  0  0  0  0
 34 35  1  0  0  0  0
 34 37  1  0  0  0  0
 34 38  1  0  0  0  0
 35 36  1  0  0  0  0
 39 42  1  0  0  0  0
M  END
$$$$
