CAT-13g
                    3D
 Schrodinger Suite 2022-3.
 52 55  0  0  1  0  0  0  0  0999 V2000
   11.7520   -2.3260    1.3500 C   0  0  0  0  0  0  0  0  0  0  0  0
   13.0060   -2.7010    0.6690 N   0  0  0  0  0  0  0  0  0  0  0  0
   14.2310   -2.7110    1.3480 C   0  0  0  0  0  0  0  0  0  0  0  0
   14.3900   -2.6620    2.7050 N   0  0  0  0  0  0  0  0  0  0  0  0
   15.2690   -2.8590    0.4410 N   0  3  0  0  0  0  0  0  0  0  0  0
   14.7530   -3.1120   -0.9550 C   0  0  1  0  0  0  0  0  0  0  0  0
   15.2630   -2.0160   -1.8810 C   0  0  0  0  0  0  0  0  0  0  0  0
   15.8150   -2.2710   -3.1390 C   0  0  0  0  0  0  0  0  0  0  0  0
   16.2030   -1.2010   -3.9570 C   0  0  0  0  0  0  0  0  0  0  0  0
   16.0230    0.1200   -3.5470 C   0  0  0  0  0  0  0  0  0  0  0  0
   15.4540    0.3910   -2.2890 C   0  0  0  0  0  0  0  0  0  0  0  0
   15.2090    1.7810   -1.8360 C   0  0  0  0  0  0  0  0  0  0  0  0
   14.6040    2.7160   -2.6910 C   0  0  0  0  0  0  0  0  0  0  0  0
   14.3540    4.0200   -2.2520 C   0  0  0  0  0  0  0  0  0  0  0  0
   14.6740    4.4050   -0.9460 C   0  0  0  0  0  0  0  0  0  0  0  0
   15.2510    3.4570   -0.0980 C   0  0  0  0  0  0  0  0  0  0  0  0
   15.5650    3.8660    1.5460 Cl  0  0  0  0  0  0  0  0  0  0  0  0
   15.5430    2.1610   -0.5260 C   0  0  0  0  0  0  0  0  0  0  0  0
   15.0920   -0.6820   -1.4640 C   0  0  0  0  0  0  0  0  0  0  0  0
   14.9650   -4.5890   -1.3910 C   0  0  0  0  0  0  0  0  0  0  0  0
   16.4450   -5.0080   -1.2970 C   0  0  0  0  0  0  0  0  0  0  0  0
   16.6260   -6.4310   -1.8530 C   0  0  0  0  0  0  0  0  0  0  0  0
   15.7260   -7.4450   -1.1290 C   0  0  0  0  0  0  0  0  0  0  0  0
   14.2570   -6.9980   -1.1300 C   0  0  0  0  0  0  0  0  0  0  0  0
   14.1030   -5.5740   -0.5690 C   0  0  0  0  0  0  0  0  0  0  0  0
   13.2150   -2.8630   -0.7790 C   0  0  0  0  0  0  0  0  0  0  0  0
   12.3220   -2.7920   -1.5620 O   0  0  0  0  0  0  0  0  0  0  0  0
   11.8090   -1.2440    1.6350 H   0  0  0  0  0  0  0  0  0  0  0  0
   10.8820   -2.5020    0.6640 H   0  0  0  0  0  0  0  0  0  0  0  0
   11.6200   -2.9500    2.2760 H   0  0  0  0  0  0  0  0  0  0  0  0
   13.6880   -2.1700    3.3110 H   0  0  0  0  0  0  0  0  0  0  0  0
   16.2300   -3.1320    0.7690 H   0  0  0  0  0  0  0  0  0  0  0  0
   15.9470   -3.2900   -3.5090 H   0  0  0  0  0  0  0  0  0  0  0  0
   16.6540   -1.4080   -4.9330 H   0  0  0  0  0  0  0  0  0  0  0  0
   16.3290    0.9390   -4.2060 H   0  0  0  0  0  0  0  0  0  0  0  0
   14.3100    2.4180   -3.7020 H   0  0  0  0  0  0  0  0  0  0  0  0
   13.8900    4.7420   -2.9350 H   0  0  0  0  0  0  0  0  0  0  0  0
   14.4610    5.4180   -0.5980 H   0  0  0  0  0  0  0  0  0  0  0  0
   16.0070    1.4390    0.1460 H   0  0  0  0  0  0  0  0  0  0  0  0
   14.6670   -0.4840   -0.4830 H   0  0  0  0  0  0  0  0  0  0  0  0
   14.6320   -4.6600   -2.4610 H   0  0  0  0  0  0  0  0  0  0  0  0
   17.0800   -4.2920   -1.8660 H   0  0  0  0  0  0  0  0  0  0  0  0
   16.7780   -4.9810   -0.2330 H   0  0  0  0  0  0  0  0  0  0  0  0
   17.6910   -6.7270   -1.7140 H   0  0  0  0  0  0  0  0  0  0  0  0
   16.3650   -6.4230   -2.9380 H   0  0  0  0  0  0  0  0  0  0  0  0
   15.8010   -8.4390   -1.6300 H   0  0  0  0  0  0  0  0  0  0  0  0
   16.0660   -7.5620   -0.0770 H   0  0  0  0  0  0  0  0  0  0  0  0
   13.8620   -7.0250   -2.1740 H   0  0  0  0  0  0  0  0  0  0  0  0
   13.6550   -7.6990   -0.5040 H   0  0  0  0  0  0  0  0  0  0  0  0
   14.4320   -5.5570    0.4970 H   0  0  0  0  0  0  0  0  0  0  0  0
   13.0250   -5.2990   -0.6150 H   0  0  0  0  0  0  0  0  0  0  0  0
   15.3720   -2.5830    3.0880 H   0  0  0  0  0  0  0  0  0  0  0  0
  1  2  1  0  0  0  0
  1 28  1  0  0  0  0
  1 29  1  0  0  0  0
  1 30  1  0  0  0  0
  2  3  1  0  0  0  0
  2 26  1  0  0  0  0
  3  4  1  0  0  0  0
  3  5  2  0  0  0  0
  4 31  1  0  0  0  0
  4 52  1  0  0  0  0
  5  6  1  0  0  0  0
  5 32  1  0  0  0  0
  6  7  1  0  0  0  0
  6 20  1  0  0  0  0
  6 26  1  0  0  0  0
  7  8  2  0  0  0  0
  7 19  1  0  0  0  0
  8  9  1  0  0  0  0
  8 33  1  0  0  0  0
  9 10  2  0  0  0  0
  9 34  1  0  0  0  0
 10 11  1  0  0  0  0
 10 35  1  0  0  0  0
 11 12  1  0  0  0  0
 11 19  2  0  0  0  0
 12 13  2  0  0  0  0
 12 18  1  0  0  0  0
 13 14  1  0  0  0  0
 13 36  1  0  0  0  0
 14 15  2  0  0  0  0
 14 37  1  0  0  0  0
 15 16  1  0  0  0  0
 15 38  1  0  0  0  0
 16 17  1  0  0  0  0
 16 18  2  0  0  0  0
 18 39  1  0  0  0  0
 19 40  1  0  0  0  0
 20 21  1  0  0  0  0
 20 25  1  0  0  0  0
 20 41  1  0  0  0  0
 21 22  1  0  0  0  0
 21 42  1  0  0  0  0
 21 43  1  0  0  0  0
 22 23  1  0  0  0  0
 22 44  1  0  0  0  0
 22 45  1  0  0  0  0
 23 24  1  0  0  0  0
 23 46  1  0  0  0  0
 23 47  1  0  0  0  0
 24 25  1  0  0  0  0
 24 48  1  0  0  0  0
 24 49  1  0  0  0  0
 25 50  1  0  0  0  0
 25 51  1  0  0  0  0
 26 27  2  0  0  0  0
M  CHG  1   5   1
M  END
$$$$
