3b
 OpenBabel02232411173D

 58 60  0  0  1  0  0  0  0  0999 V2000
   18.2610  -13.3210   21.5790 N   0  0  0  0  0  0  0  0  0  0  0  0
   17.8290  -12.1380   20.7760 C   0  0  2  0  0  0  0  0  0  0  0  0
   17.4110  -13.8660   22.5110 C   0  0  0  0  0  0  0  0  0  0  0  0
   16.3680  -13.2960   22.8230 O   0  0  0  0  0  0  0  0  0  0  0  0
   16.5430  -12.4790   19.9800 C   0  0  0  0  0  0  0  0  0  0  0  0
   16.1440  -13.6220   19.8020 O   0  0  0  0  0  0  0  0  0  0  0  0
   19.0070  -11.8200   19.8360 C   0  0  0  0  0  0  0  0  0  0  0  0
   17.8130  -15.2140   23.1790 C   0  0  2  0  0  0  0  0  0  0  0  0
   15.8980  -11.3900   19.4020 N   0  0  0  0  0  0  0  0  0  0  0  0
   20.0870  -12.8960   20.0510 C   0  0  0  0  0  0  0  0  0  0  0  0
   16.5520  -16.0950   23.2450 N   0  3  0  0  0  0  0  0  0  0  0  0
   18.3400  -15.0220   24.6130 C   0  0  0  0  0  0  0  0  0  0  0  0
   14.5110  -11.5550   18.8750 C   0  0  0  0  0  0  0  0  0  0  0  0
   19.5380  -13.9090   21.0750 C   0  0  0  0  0  0  0  0  0  0  0  0
   19.7770  -14.5650   24.6490 C   0  0  0  0  0  0  0  0  0  0  0  0
   13.5200  -11.6230   20.0170 C   0  0  0  0  0  0  0  0  0  0  0  0
   20.1050  -13.3330   25.2250 C   0  0  0  0  0  0  0  0  0  0  0  0
   13.3660  -10.5090   20.8500 C   0  0  0  0  0  0  0  0  0  0  0  0
   21.4370  -12.9110   25.2800 C   0  0  0  0  0  0  0  0  0  0  0  0
   12.4960  -10.5520   21.9530 C   0  0  0  0  0  0  0  0  0  0  0  0
   22.4550  -13.7360   24.7970 C   0  0  0  0  0  0  0  0  0  0  0  0
   11.7850  -11.7330   22.2090 C   0  0  0  0  0  0  0  0  0  0  0  0
   22.1330  -14.9810   24.2430 C   0  0  0  0  0  0  0  0  0  0  0  0
   11.9420  -12.8440   21.3770 C   0  0  0  0  0  0  0  0  0  0  0  0
   20.8010  -15.3930   24.1600 C   0  0  0  0  0  0  0  0  0  0  0  0
   12.7940  -12.7940   20.2700 C   0  0  0  0  0  0  0  0  0  0  0  0
   17.6360  -11.2760   21.4750 H   0  0  0  0  0  0  0  0  0  0  0  0
   18.6820  -11.8120   18.7700 H   0  0  0  0  0  0  0  0  0  0  0  0
   19.4080  -10.8160   20.0980 H   0  0  0  0  0  0  0  0  0  0  0  0
   18.5670  -15.7950   22.5730 H   0  0  0  0  0  0  0  0  0  0  0  0
   16.1490  -10.4340   19.6870 H   0  0  0  0  0  0  0  0  0  0  0  0
   20.3210  -13.4180   19.0930 H   0  0  0  0  0  0  0  0  0  0  0  0
   21.0240  -12.4310   20.4370 H   0  0  0  0  0  0  0  0  0  0  0  0
   16.7970  -17.0220   23.7050 H   0  0  0  0  0  0  0  0  0  0  0  0
   15.7980  -15.5980   23.8230 H   0  0  0  0  0  0  0  0  0  0  0  0
   16.1890  -16.3010   22.2740 H   0  0  0  0  0  0  0  0  0  0  0  0
   17.6820  -14.3010   25.1620 H   0  0  0  0  0  0  0  0  0  0  0  0
   18.2950  -16.0080   25.1570 H   0  0  0  0  0  0  0  0  0  0  0  0
   14.2960  -10.6640   18.2250 H   0  0  0  0  0  0  0  0  0  0  0  0
   14.4760  -12.4820   18.2410 H   0  0  0  0  0  0  0  0  0  0  0  0
   20.2490  -14.0410   21.9300 H   0  0  0  0  0  0  0  0  0  0  0  0
   19.3490  -14.8980   20.5840 H   0  0  0  0  0  0  0  0  0  0  0  0
   19.3230  -12.7090   25.6490 H   0  0  0  0  0  0  0  0  0  0  0  0
   13.9310   -9.5970   20.6380 H   0  0  0  0  0  0  0  0  0  0  0  0
   21.6510  -11.9310   25.7050 H   0  0  0  0  0  0  0  0  0  0  0  0
   23.5000  -13.4220   24.8550 H   0  0  0  0  0  0  0  0  0  0  0  0
   22.9180  -15.6480   23.8740 H   0  0  0  0  0  0  0  0  0  0  0  0
   11.3980  -13.7650   21.6010 H   0  0  0  0  0  0  0  0  0  0  0  0
   20.5570  -16.3650   23.7260 H   0  0  0  0  0  0  0  0  0  0  0  0
   12.8900  -13.6660   19.6210 H   0  0  0  0  0  0  0  0  0  0  0  0
   11.0950  -11.8010   23.0540 H   0  0  0  0  0  0  0  0  0  0  0  0
   12.3560   -9.2990   22.7750 C   0  0  0  0  0  0  0  0  0  0  0  0
   13.3780   -8.8950   22.9930 H   0  0  0  0  0  0  0  0  0  0  0  0
   11.8150   -8.5610   22.1320 H   0  0  0  0  0  0  0  0  0  0  0  0
   11.6090   -9.4370   24.1000 C   0  0  0  0  0  0  0  0  0  0  0  0
   10.5450   -9.7250   23.9360 H   0  0  0  0  0  0  0  0  0  0  0  0
   11.6340   -8.4650   24.6390 H   0  0  0  0  0  0  0  0  0  0  0  0
   12.0880  -10.2060   24.7410 H   0  0  0  0  0  0  0  0  0  0  0  0
  1  2  1  0  0  0  0
  1 14  1  0  0  0  0
  1  3  1  0  0  0  0
  2  5  1  0  0  0  0
  2  7  1  0  0  0  0
  2 27  1  1  0  0  0
  3  8  1  0  0  0  0
  3  4  2  0  0  0  0
  5  6  2  0  0  0  0
  5  9  1  0  0  0  0
  7 10  1  0  0  0  0
  7 28  1  0  0  0  0
  7 29  1  0  0  0  0
  8 11  1  0  0  0  0
  8 12  1  0  0  0  0
  8 30  1  6  0  0  0
  9 13  1  0  0  0  0
  9 31  1  0  0  0  0
 10 14  1  0  0  0  0
 10 32  1  0  0  0  0
 10 33  1  0  0  0  0
 11 34  1  0  0  0  0
 11 35  1  0  0  0  0
 11 36  1  0  0  0  0
 12 15  1  0  0  0  0
 12 37  1  0  0  0  0
 12 38  1  0  0  0  0
 13 16  1  0  0  0  0
 13 39  1  0  0  0  0
 13 40  1  0  0  0  0
 14 41  1  0  0  0  0
 14 42  1  0  0  0  0
 15 17  2  0  0  0  0
 15 25  1  0  0  0  0
 16 18  2  0  0  0  0
 16 26  1  0  0  0  0
 17 19  1  0  0  0  0
 17 43  1  0  0  0  0
 18 20  1  0  0  0  0
 18 44  1  0  0  0  0
 19 21  2  0  0  0  0
 19 45  1  0  0  0  0
 20 22  2  0  0  0  0
 20 52  1  0  0  0  0
 21 23  1  0  0  0  0
 21 46  1  0  0  0  0
 22 24  1  0  0  0  0
 22 51  1  0  0  0  0
 23 25  2  0  0  0  0
 23 47  1  0  0  0  0
 24 26  2  0  0  0  0
 24 48  1  0  0  0  0
 25 49  1  0  0  0  0
 26 50  1  0  0  0  0
 52 53  1  0  0  0  0
 52 54  1  0  0  0  0
 52 55  1  0  0  0  0
 55 56  1  0  0  0  0
 55 57  1  0  0  0  0
 55 58  1  0  0  0  0
M  CHG  1  11   1
M  END
$$$$
