p38a_2aa
 OpenBabel02232411163D
Structure written by MMmdl.
 43 45  0  0  0  0  0  0  0  0999 V2000
   36.3230   35.9710   15.8720 C   0  0  0  0  0  0  0  0  0  0  0  0
   34.6100   35.0420   21.4950 C   0  0  0  0  0  0  0  0  0  0  0  0
   35.6340   35.5200   16.9940 C   0  0  0  0  0  0  0  0  0  0  0  0
   34.4990   39.1640   24.0100 C   0  0  0  0  0  0  0  0  0  0  0  0
   34.0630   39.1970   26.4800 C   0  0  0  0  0  0  0  0  0  0  0  0
   34.8690   37.9020   21.5980 C   0  0  0  0  0  0  0  0  0  0  0  0
   35.1910   37.2120   20.3780 C   0  0  0  0  0  0  0  0  0  0  0  0
   37.6170   36.4630   16.0880 C   0  0  0  0  0  0  0  0  0  0  0  0
   38.2350   36.4790   17.3420 C   0  0  0  0  0  0  0  0  0  0  0  0
   37.5100   36.0510   18.4590 C   0  0  0  0  0  0  0  0  0  0  0  0
   34.5850   37.1640   22.7850 C   0  0  0  0  0  0  0  0  0  0  0  0
   34.8390   39.3180   21.6970 C   0  0  0  0  0  0  0  0  0  0  0  0
   35.1170   35.8610   20.3590 C   0  0  0  0  0  0  0  0  0  0  0  0
   36.2070   35.5750   18.2800 C   0  0  0  0  0  0  0  0  0  0  0  0
   34.1350   35.0200   23.9770 C   0  0  0  0  0  0  0  0  0  0  0  0
   34.4150   35.0100   16.8760 F   0  0  0  0  0  0  0  0  0  0  0  0
   35.4370   35.0080   19.3060 O   0  0  0  0  0  0  0  0  0  0  0  0
   34.6460   39.9580   22.8620 N   0  0  0  0  0  0  0  0  0  0  0  0
   34.3300   33.8660   21.4420 O   0  0  0  0  0  0  0  0  0  0  0  0
   34.4540   35.7680   22.7290 N   0  0  0  0  0  0  0  0  0  0  0  0
   34.4140   37.7950   23.9980 N   0  0  0  0  0  0  0  0  0  0  0  0
   34.5440   39.8530   25.2300 N   0  0  0  0  0  0  0  0  0  0  0  0
   35.8710   35.9680   14.8770 H   0  0  0  0  0  0  0  0  0  0  0  0
   34.5410   40.0690   27.6730 C   0  0  0  0  0  0  0  0  0  0  0  0
   35.5080   37.8060   19.5170 H   0  0  0  0  0  0  0  0  0  0  0  0
   39.2580   36.8510   17.4550 H   0  0  0  0  0  0  0  0  0  0  0  0
   37.9580   36.1140   19.4530 H   0  0  0  0  0  0  0  0  0  0  0  0
   34.9690   39.9360   20.7930 H   0  0  0  0  0  0  0  0  0  0  0  0
   34.8910   35.2610   24.7740 H   0  0  0  0  0  0  0  0  0  0  0  0
   33.1190   35.3140   24.3560 H   0  0  0  0  0  0  0  0  0  0  0  0
   34.1510   33.9160   23.7830 H   0  0  0  0  0  0  0  0  0  0  0  0
   34.2270   40.8510   25.1830 H   0  0  0  0  0  0  0  0  0  0  0  0
   38.2720   36.9750   15.0490 F   0  0  0  0  0  0  0  0  0  0  0  0
   32.5170   39.0320   26.5060 C   0  0  0  0  0  0  0  0  0  0  0  0
   31.8670   39.8990   25.5700 O   0  0  0  0  0  0  0  0  0  0  0  0
   32.1390   40.8430   25.7510 H   0  0  0  0  0  0  0  0  0  0  0  0
   32.2250   38.0140   26.1490 H   0  0  0  0  0  0  0  0  0  0  0  0
   32.1120   39.2220   27.5270 H   0  0  0  0  0  0  0  0  0  0  0  0
   35.9700   40.1230   27.7610 O   0  0  0  0  0  0  0  0  0  0  0  0
   34.1520   41.1120   27.5950 H   0  0  0  0  0  0  0  0  0  0  0  0
   34.2350   39.5970   28.6400 H   0  0  0  0  0  0  0  0  0  0  0  0
   36.3320   40.2820   26.8560 H   0  0  0  0  0  0  0  0  0  0  0  0
   34.5320   38.1750   26.5720 H   0  0  0  0  0  0  0  0  0  0  0  0
  1  3  2  0  0  0  0
  1  8  1  0  0  0  0
  1 23  1  0  0  0  0
  2 13  1  0  0  0  0
  2 19  2  0  0  0  0
  2 20  1  0  0  0  0
  3 14  1  0  0  0  0
  3 16  1  0  0  0  0
  4 18  2  0  0  0  0
  4 21  1  0  0  0  0
  4 22  1  0  0  0  0
  5 22  1  0  0  0  0
  5 24  1  0  0  0  0
  5 34  1  0  0  0  0
  5 43  1  0  0  0  0
  6  7  1  0  0  0  0
  6 11  1  0  0  0  0
  6 12  2  0  0  0  0
  7 13  2  0  0  0  0
  7 25  1  0  0  0  0
  8  9  2  0  0  0  0
  8 33  1  0  0  0  0
  9 10  1  0  0  0  0
  9 26  1  0  0  0  0
 10 14  2  0  0  0  0
 10 27  1  0  0  0  0
 11 20  1  0  0  0  0
 11 21  2  0  0  0  0
 12 18  1  0  0  0  0
 12 28  1  0  0  0  0
 13 17  1  0  0  0  0
 14 17  1  0  0  0  0
 15 20  1  0  0  0  0
 15 29  1  0  0  0  0
 15 30  1  0  0  0  0
 15 31  1  0  0  0  0
 22 32  1  0  0  0  0
 24 39  1  0  0  0  0
 24 40  1  0  0  0  0
 24 41  1  0  0  0  0
 34 35  1  0  0  0  0
 34 37  1  0  0  0  0
 34 38  1  0  0  0  0
 35 36  1  0  0  0  0
 39 42  1  0  0  0  0
M  END
$$$$
