p38a_3flq
 OpenBabel02232411163D
Structure written by MMmdl.
 47 49  0  0  1  0  0  0  0  0999 V2000
   34.0820   38.9060   23.8100 C   0  0  0  0  0  0  0  0  0  0  0  0
   34.7630   37.7910   21.3790 C   0  0  0  0  0  0  0  0  0  0  0  0
   35.2570   37.1630   20.1830 C   0  0  0  0  0  0  0  0  0  0  0  0
   34.2610   36.9910   22.4490 C   0  0  0  0  0  0  0  0  0  0  0  0
   35.1780   35.8160   20.0770 C   0  0  0  0  0  0  0  0  0  0  0  0
   33.8170   38.6040   26.2860 C   0  0  1  0  0  0  0  0  0  0  0  0
   35.1950   37.9680   26.4930 C   0  0  0  0  0  0  0  0  0  0  0  0
   31.0770   38.3040   28.2770 C   0  0  0  0  0  0  0  0  0  0  0  0
   34.1150   35.6040   22.2880 N   0  0  0  0  0  0  0  0  0  0  0  0
   33.4370   39.4840   27.4920 C   0  0  0  0  0  0  0  0  0  0  0  0
   38.3250   37.2220   14.8230 F   0  0  0  0  0  0  0  0  0  0  0  0
   37.7050   36.6590   15.8570 C   0  0  0  0  0  0  0  0  0  0  0  0
   38.3520   36.6340   17.0950 C   0  0  0  0  0  0  0  0  0  0  0  0
   37.6630   36.1440   18.2100 C   0  0  0  0  0  0  0  0  0  0  0  0
   36.4140   36.1540   15.6500 C   0  0  0  0  0  0  0  0  0  0  0  0
   35.7650   35.6320   16.7640 C   0  0  0  0  0  0  0  0  0  0  0  0
   34.5570   35.0980   16.6530 F   0  0  0  0  0  0  0  0  0  0  0  0
   36.3690   35.6460   18.0380 C   0  0  0  0  0  0  0  0  0  0  0  0
   35.6500   35.0010   19.0530 O   0  0  0  0  0  0  0  0  0  0  0  0
   34.5200   34.9350   21.0830 C   0  0  0  0  0  0  0  0  0  0  0  0
   34.3180   33.7480   20.9440 O   0  0  0  0  0  0  0  0  0  0  0  0
   34.7830   39.1950   21.5910 C   0  0  0  0  0  0  0  0  0  0  0  0
   34.4600   39.7660   22.7650 N   0  0  0  0  0  0  0  0  0  0  0  0
   33.9240   37.5420   23.6590 N   0  0  0  0  0  0  0  0  0  0  0  0
   33.5370   34.8080   23.4080 C   0  0  0  0  0  0  0  0  0  0  0  0
   33.7990   39.4630   25.0460 N   0  0  0  0  0  0  0  0  0  0  0  0
   32.7020   38.5960   28.8260 S   0  0  0  0  0  0  0  0  0  0  0  0
   33.4020   37.3230   29.1020 O   0  0  0  0  0  0  0  0  0  0  0  0
   32.6980   39.4410   30.0450 O   0  0  0  0  0  0  0  0  0  0  0  0
   35.7000   37.8010   19.4160 H   0  0  0  0  0  0  0  0  0  0  0  0
   33.0370   37.8070   26.1220 H   0  0  0  0  0  0  0  0  0  0  0  0
   35.4470   37.2880   25.6480 H   0  0  0  0  0  0  0  0  0  0  0  0
   35.9810   38.7480   26.5780 H   0  0  0  0  0  0  0  0  0  0  0  0
   35.1780   37.3520   27.4250 H   0  0  0  0  0  0  0  0  0  0  0  0
   30.3030   38.6770   28.9960 H   0  0  0  0  0  0  0  0  0  0  0  0
   30.8550   38.7680   27.2810 H   0  0  0  0  0  0  0  0  0  0  0  0
   30.8720   37.2060   28.1400 H   0  0  0  0  0  0  0  0  0  0  0  0
   34.3550   40.0320   27.8460 H   0  0  0  0  0  0  0  0  0  0  0  0
   32.7390   40.2990   27.1500 H   0  0  0  0  0  0  0  0  0  0  0  0
   39.3680   37.0220   17.2080 H   0  0  0  0  0  0  0  0  0  0  0  0
   38.1310   36.1820   19.1970 H   0  0  0  0  0  0  0  0  0  0  0  0
   35.9340   36.1910   14.6700 H   0  0  0  0  0  0  0  0  0  0  0  0
   35.0820   39.8710   20.7730 H   0  0  0  0  0  0  0  0  0  0  0  0
   33.5360   33.7180   23.1530 H   0  0  0  0  0  0  0  0  0  0  0  0
   34.1420   34.9690   24.3430 H   0  0  0  0  0  0  0  0  0  0  0  0
   32.4840   35.1440   23.6100 H   0  0  0  0  0  0  0  0  0  0  0  0
   33.9740   40.4770   25.1840 H   0  0  0  0  0  0  0  0  0  0  0  0
  1 23  2  0  0  0  0
  1 24  1  0  0  0  0
  1 26  1  0  0  0  0
  2  3  1  0  0  0  0
  2  4  1  0  0  0  0
  2 22  2  0  0  0  0
  3  5  2  0  0  0  0
  3 30  1  0  0  0  0
  4  9  1  0  0  0  0
  4 24  2  0  0  0  0
  5 19  1  0  0  0  0
  5 20  1  0  0  0  0
  6  7  1  0  0  0  0
  6 10  1  0  0  0  0
  6 26  1  0  0  0  0
  6 31  1  6  0  0  0
  7 32  1  0  0  0  0
  7 33  1  0  0  0  0
  7 34  1  0  0  0  0
  8 27  1  0  0  0  0
  8 35  1  0  0  0  0
  8 36  1  0  0  0  0
  8 37  1  0  0  0  0
  9 20  1  0  0  0  0
  9 25  1  0  0  0  0
 10 27  1  0  0  0  0
 10 38  1  0  0  0  0
 10 39  1  0  0  0  0
 11 12  1  0  0  0  0
 12 13  2  0  0  0  0
 12 15  1  0  0  0  0
 13 14  1  0  0  0  0
 13 40  1  0  0  0  0
 14 18  2  0  0  0  0
 14 41  1  0  0  0  0
 15 16  2  0  0  0  0
 15 42  1  0  0  0  0
 16 17  1  0  0  0  0
 16 18  1  0  0  0  0
 18 19  1  0  0  0  0
 20 21  2  0  0  0  0
 22 23  1  0  0  0  0
 22 43  1  0  0  0  0
 25 44  1  0  0  0  0
 25 45  1  0  0  0  0
 25 46  1  0  0  0  0
 26 47  1  0  0  0  0
 27 28  2  0  0  0  0
 27 29  2  0  0  0  0
M  END
$$$$
