23486
 OpenBabel02232411173D
Structure written by MMmdl.
 60 63  0  0  0  0  0  0  0  0999 V2000
   42.4040   17.9870   12.5580 O   0  0  0  0  0  0  0  0  0  0  0  0
   41.2720   17.6720   12.9380 C   0  0  0  0  0  0  0  0  0  0  0  0
   40.2200   18.3260   12.7660 O   0  5  0  0  0  0  0  0  0  0  0  0
   41.0890   16.3170   13.6890 C   0  0  0  0  0  0  0  0  0  0  0  0
   42.4640   15.8150   13.7170 O   0  0  0  0  0  0  0  0  0  0  0  0
   42.7120   14.9330   14.7210 C   0  0  0  0  0  0  0  0  0  0  0  0
   42.1330   13.6060   14.7450 C   0  0  0  0  0  0  0  0  0  0  0  0
   41.0300   13.1380   13.5220 Cl  0  0  0  0  0  0  0  0  0  0  0  0
   42.5640   12.8070   15.7710 C   0  0  0  0  0  0  0  0  0  0  0  0
   42.1440   11.4660   16.1130 C   0  0  0  0  0  0  0  0  0  0  0  0
   42.9850   10.5380   16.7710 C   0  0  0  0  0  0  0  0  0  0  0  0
   42.5300    9.2470   17.0160 C   0  0  0  0  0  0  0  0  0  0  0  0
   41.2670    8.8100   16.5840 C   0  0  0  0  0  0  0  0  0  0  0  0
   40.4220    9.7240   15.9430 C   0  0  0  0  0  0  0  0  0  0  0  0
   39.0760    9.4590   15.5360 N   0  0  0  0  0  0  0  0  0  0  0  0
   38.5920    8.0850   15.2490 C   0  0  0  0  0  0  0  0  0  0  0  0
   37.0900    8.0650   15.6380 C   0  0  0  0  0  0  0  0  0  0  0  0
   36.4440    6.7210   15.2610 C   0  0  0  0  0  0  0  0  0  0  0  0
   36.6010    6.4990   13.7900 N   0  0  0  0  0  0  0  0  0  0  0  0
   35.4420    5.5140   13.0380 S   0  0  0  0  0  0  0  0  0  0  0  0
   35.4090    5.8830   11.6140 O   0  0  0  0  0  0  0  0  0  0  0  0
   34.1680    5.7260   13.7180 O   0  0  0  0  0  0  0  0  0  0  0  0
   35.8810    3.8270   13.3000 C   0  0  0  0  0  0  0  0  0  0  0  0
   36.7030    3.1790   12.2390 C   0  0  0  0  0  0  0  0  0  0  0  0
   38.0400    2.8400   12.5010 C   0  0  0  0  0  0  0  0  0  0  0  0
   38.7780    2.1170   11.5610 C   0  0  0  0  0  0  0  0  0  0  0  0
   38.2020    1.7520   10.3420 C   0  0  0  0  0  0  0  0  0  0  0  0
   36.8800    2.1170   10.0640 C   0  0  0  0  0  0  0  0  0  0  0  0
   36.1260    2.8150   11.0100 C   0  0  0  0  0  0  0  0  0  0  0  0
   38.0440    6.3920   13.4170 C   0  0  0  0  0  0  0  0  0  0  0  0
   38.7580    7.7150   13.7480 C   0  0  0  0  0  0  0  0  0  0  0  0
   40.8520   11.0580   15.7630 C   0  0  0  0  0  0  0  0  0  0  0  0
   43.7530   13.7020   16.6920 S   0  0  0  0  0  0  0  0  0  0  0  0
   43.6170   15.1570   15.7240 C   0  0  0  0  0  0  0  0  0  0  0  0
   44.4130   16.4110   16.0900 C   0  0  0  0  0  0  0  0  0  0  0  0
   45.1440   16.2980   17.1000 O   0  0  0  0  0  0  0  0  0  0  0  0
   44.3140   17.4110   15.3780 O   0  5  0  0  0  0  0  0  0  0  0  0
   40.4620   15.6140   13.1040 H   0  0  0  0  0  0  0  0  0  0  0  0
   40.6830   16.4460   14.7130 H   0  0  0  0  0  0  0  0  0  0  0  0
   43.9920   10.8130   17.0870 H   0  0  0  0  0  0  0  0  0  0  0  0
   43.1670    8.5350   17.5450 H   0  0  0  0  0  0  0  0  0  0  0  0
   40.9730    7.7770   16.7570 H   0  0  0  0  0  0  0  0  0  0  0  0
   38.7520   10.1080   14.7830 H   0  0  0  0  0  0  0  0  0  0  0  0
   39.1330    7.3270   15.8710 H   0  0  0  0  0  0  0  0  0  0  0  0
   36.9930    8.2020   16.7410 H   0  0  0  0  0  0  0  0  0  0  0  0
   36.5520    8.8850   15.1110 H   0  0  0  0  0  0  0  0  0  0  0  0
   36.9340    5.8890   15.8410 H   0  0  0  0  0  0  0  0  0  0  0  0
   35.3560    6.7510   15.5260 H   0  0  0  0  0  0  0  0  0  0  0  0
   36.4100    3.7260   14.2970 H   0  0  0  0  0  0  0  0  0  0  0  0
   34.9430    3.2100   13.4400 H   0  0  0  0  0  0  0  0  0  0  0  0
   38.5080    3.1150   13.4510 H   0  0  0  0  0  0  0  0  0  0  0  0
   39.8050    1.8300   11.7990 H   0  0  0  0  0  0  0  0  0  0  0  0
   38.7730    1.1740    9.6160 H   0  0  0  0  0  0  0  0  0  0  0  0
   36.4290    1.8300    9.1120 H   0  0  0  0  0  0  0  0  0  0  0  0
   35.0810    3.0510   10.8010 H   0  0  0  0  0  0  0  0  0  0  0  0
   38.5370    5.5560   13.9910 H   0  0  0  0  0  0  0  0  0  0  0  0
   38.1340    6.1820   12.3230 H   0  0  0  0  0  0  0  0  0  0  0  0
   38.3330    8.5310   13.1200 H   0  0  0  0  0  0  0  0  0  0  0  0
   39.8430    7.5920   13.5240 H   0  0  0  0  0  0  0  0  0  0  0  0
   40.1330   11.7710   15.3610 H   0  0  0  0  0  0  0  0  0  0  0  0
  1  2  2  0  0  0  0
  2  3  1  0  0  0  0
  2  4  1  0  0  0  0
  4  5  1  0  0  0  0
  4 38  1  0  0  0  0
  4 39  1  0  0  0  0
  5  6  1  0  0  0  0
  6 34  2  0  0  0  0
  6  7  1  0  0  0  0
  7  8  1  0  0  0  0
  7  9  2  0  0  0  0
  9 10  1  0  0  0  0
  9 33  1  0  0  0  0
 10 32  2  0  0  0  0
 10 11  1  0  0  0  0
 11 12  2  0  0  0  0
 11 40  1  0  0  0  0
 12 13  1  0  0  0  0
 12 41  1  0  0  0  0
 13 14  2  0  0  0  0
 13 42  1  0  0  0  0
 14 15  1  0  0  0  0
 14 32  1  0  0  0  0
 15 16  1  0  0  0  0
 15 43  1  0  0  0  0
 16 31  1  0  0  0  0
 16 17  1  0  0  0  0
 16 44  1  0  0  0  0
 17 18  1  0  0  0  0
 17 45  1  0  0  0  0
 17 46  1  0  0  0  0
 18 19  1  0  0  0  0
 18 47  1  0  0  0  0
 18 48  1  0  0  0  0
 19 20  1  0  0  0  0
 19 30  1  0  0  0  0
 20 21  2  0  0  0  0
 20 22  2  0  0  0  0
 20 23  1  0  0  0  0
 23 24  1  0  0  0  0
 23 49  1  0  0  0  0
 23 50  1  0  0  0  0
 24 29  2  0  0  0  0
 24 25  1  0  0  0  0
 25 26  2  0  0  0  0
 25 51  1  0  0  0  0
 26 27  1  0  0  0  0
 26 52  1  0  0  0  0
 27 28  2  0  0  0  0
 27 53  1  0  0  0  0
 28 29  1  0  0  0  0
 28 54  1  0  0  0  0
 29 55  1  0  0  0  0
 30 31  1  0  0  0  0
 30 56  1  0  0  0  0
 30 57  1  0  0  0  0
 31 58  1  0  0  0  0
 31 59  1  0  0  0  0
 32 60  1  0  0  0  0
 33 34  1  0  0  0  0
 34 35  1  0  0  0  0
 35 36  2  0  0  0  0
 35 37  1  0  0  0  0
M  CHG  2   3  -1  37  -1
M  END
$$$$
