18632-1
 OpenBabel02232411163D
Structure written by MMmdl.
 42 43  0  0  0  0  0  0  0  0999 V2000
   24.4740   11.0610   30.7880 C   0  0  0  0  0  0  0  0  0  0  0  0
   23.1370   11.2950   30.1170 C   0  0  0  0  0  0  0  0  0  0  0  0
   22.0530   11.3230   31.1230 O   0  0  0  0  0  0  0  0  0  0  0  0
   21.4860   10.1630   31.5220 C   0  0  0  0  0  0  0  0  0  0  0  0
   21.9750    8.9820   31.0740 N   0  0  0  0  0  0  0  0  0  0  0  0
   21.2890    7.8290   31.4280 C   0  0  0  0  0  0  0  0  0  0  0  0
   20.1570    7.8440   32.2360 C   0  0  0  0  0  0  0  0  0  0  0  0
   19.6580    9.0870   32.7120 C   0  0  0  0  0  0  0  0  0  0  0  0
   18.5210    9.1150   33.4790 N   0  0  0  0  0  0  0  0  0  0  0  0
   20.3380   10.2960   32.3590 C   0  0  0  0  0  0  0  0  0  0  0  0
   19.9190   11.5870   32.7430 C   0  0  0  0  0  0  0  0  0  0  0  0
   19.6270   12.6760   33.0170 N   0  0  0  0  0  0  0  0  0  0  0  0
   21.8740    6.6770   30.8490 N   0  0  0  0  0  0  0  0  0  0  0  0
   21.3320    5.3670   30.8160 C   0  0  0  0  0  0  0  0  0  0  0  0
   20.2970    5.0770   31.3770 O   0  0  0  0  0  0  0  0  0  0  0  0
   22.1450    4.4010   29.9700 C   0  0  0  0  0  0  0  0  0  0  0  0
   23.3960    3.9420   30.6770 C   0  0  0  0  0  0  0  0  0  0  0  0
   23.3750    2.7600   31.4330 C   0  0  0  0  0  0  0  0  0  0  0  0
   24.5430    2.3680   32.0980 C   0  0  0  0  0  0  0  0  0  0  0  0
   24.6770    1.2530   32.8910 O   0  0  0  0  0  0  0  0  0  0  0  0
   23.6090    0.2700   32.8820 C   0  0  0  0  0  0  0  0  0  0  0  0
   25.7320    3.1260   32.0250 C   0  0  0  0  0  0  0  0  0  0  0  0
   25.7320    4.2800   31.2510 C   0  0  0  0  0  0  0  0  0  0  0  0
   24.5750    4.6880   30.5720 C   0  0  0  0  0  0  0  0  0  0  0  0
   25.2730   11.0120   30.0060 H   0  0  0  0  0  0  0  0  0  0  0  0
   24.4840   10.0910   31.3400 H   0  0  0  0  0  0  0  0  0  0  0  0
   24.7180   11.8840   31.4930 H   0  0  0  0  0  0  0  0  0  0  0  0
   22.9120   10.5290   29.3410 H   0  0  0  0  0  0  0  0  0  0  0  0
   23.0400   12.3330   29.7150 H   0  0  0  0  0  0  0  0  0  0  0  0
   19.6340    6.9210   32.4930 H   0  0  0  0  0  0  0  0  0  0  0  0
   18.0290    8.2400   33.7430 H   0  0  0  0  0  0  0  0  0  0  0  0
   18.1120    9.9960   33.7890 H   0  0  0  0  0  0  0  0  0  0  0  0
   22.7640    6.8520   30.3390 H   0  0  0  0  0  0  0  0  0  0  0  0
   21.5000    3.5170   29.7240 H   0  0  0  0  0  0  0  0  0  0  0  0
   22.4260    4.8960   29.0020 H   0  0  0  0  0  0  0  0  0  0  0  0
   22.4670    2.1650   31.4980 H   0  0  0  0  0  0  0  0  0  0  0  0
   24.0140   -0.5090   33.5700 H   0  0  0  0  0  0  0  0  0  0  0  0
   23.4800   -0.1310   31.8530 H   0  0  0  0  0  0  0  0  0  0  0  0
   22.6700    0.7090   33.2810 H   0  0  0  0  0  0  0  0  0  0  0  0
   26.6310    2.8060   32.5560 H   0  0  0  0  0  0  0  0  0  0  0  0
   26.6470    4.8760   31.1600 H   0  0  0  0  0  0  0  0  0  0  0  0
   24.6230    5.5850   29.9530 H   0  0  0  0  0  0  0  0  0  0  0  0
  1  2  1  0  0  0  0
  1 25  1  0  0  0  0
  1 26  1  0  0  0  0
  1 27  1  0  0  0  0
  2  3  1  0  0  0  0
  2 28  1  0  0  0  0
  2 29  1  0  0  0  0
  3  4  1  0  0  0  0
  4 10  2  0  0  0  0
  4  5  1  0  0  0  0
  5  6  2  0  0  0  0
  6  7  1  0  0  0  0
  6 13  1  0  0  0  0
  7  8  2  0  0  0  0
  7 30  1  0  0  0  0
  8  9  1  0  0  0  0
  8 10  1  0  0  0  0
  9 31  1  0  0  0  0
  9 32  1  0  0  0  0
 10 11  1  0  0  0  0
 11 12  3  0  0  0  0
 13 14  1  0  0  0  0
 13 33  1  0  0  0  0
 14 15  2  0  0  0  0
 14 16  1  0  0  0  0
 16 17  1  0  0  0  0
 16 34  1  0  0  0  0
 16 35  1  0  0  0  0
 17 24  2  0  0  0  0
 17 18  1  0  0  0  0
 18 19  2  0  0  0  0
 18 36  1  0  0  0  0
 19 20  1  0  0  0  0
 19 22  1  0  0  0  0
 20 21  1  0  0  0  0
 21 37  1  0  0  0  0
 21 38  1  0  0  0  0
 21 39  1  0  0  0  0
 22 23  2  0  0  0  0
 22 40  1  0  0  0  0
 23 24  1  0  0  0  0
 23 41  1  0  0  0  0
 24 42  1  0  0  0  0
M  END
$$$$
