p38a_2x
 OpenBabel02232411163D
Structure written by MMmdl.
 43 46  0  0  1  0  0  0  0  0999 V2000
   36.3660   36.0650   15.7730 C   0  0  0  0  0  0  0  0  0  0  0  0
   34.5680   34.9950   21.3080 C   0  0  0  0  0  0  0  0  0  0  0  0
   35.7000   35.5880   16.8980 C   0  0  0  0  0  0  0  0  0  0  0  0
   34.0410   39.0510   23.8860 C   0  0  0  0  0  0  0  0  0  0  0  0
   34.7630   37.8620   21.5060 C   0  0  0  0  0  0  0  0  0  0  0  0
   35.2110   37.2060   20.3060 C   0  0  0  0  0  0  0  0  0  0  0  0
   37.6590   36.5630   15.9760 C   0  0  0  0  0  0  0  0  0  0  0  0
   38.2970   36.5660   17.2200 C   0  0  0  0  0  0  0  0  0  0  0  0
   37.5930   36.1170   18.3430 C   0  0  0  0  0  0  0  0  0  0  0  0
   34.3420   37.0860   22.6270 C   0  0  0  0  0  0  0  0  0  0  0  0
   34.7400   39.2740   21.6590 C   0  0  0  0  0  0  0  0  0  0  0  0
   35.1480   35.8570   20.2400 C   0  0  0  0  0  0  0  0  0  0  0  0
   36.2930   35.6300   18.1770 C   0  0  0  0  0  0  0  0  0  0  0  0
   33.8500   34.9020   23.7270 C   0  0  0  0  0  0  0  0  0  0  0  0
   34.4850   35.0680   16.7930 F   0  0  0  0  0  0  0  0  0  0  0  0
   35.5550   35.0240   19.2010 O   0  0  0  0  0  0  0  0  0  0  0  0
   34.3940   39.8810   22.8070 N   0  0  0  0  0  0  0  0  0  0  0  0
   34.3480   33.8080   21.2090 O   0  0  0  0  0  0  0  0  0  0  0  0
   34.2630   35.6880   22.5300 N   0  0  0  0  0  0  0  0  0  0  0  0
   33.9970   37.6730   23.8190 N   0  0  0  0  0  0  0  0  0  0  0  0
   33.6480   39.6630   25.0630 N   0  0  0  0  0  0  0  0  0  0  0  0
   35.8960   36.0740   14.7870 H   0  0  0  0  0  0  0  0  0  0  0  0
   35.6020   37.8270   19.4960 H   0  0  0  0  0  0  0  0  0  0  0  0
   39.3180   36.9420   17.3260 H   0  0  0  0  0  0  0  0  0  0  0  0
   38.0550   36.1750   19.3320 H   0  0  0  0  0  0  0  0  0  0  0  0
   35.0150   39.9220   20.8110 H   0  0  0  0  0  0  0  0  0  0  0  0
   34.5340   35.1330   24.5890 H   0  0  0  0  0  0  0  0  0  0  0  0
   32.8010   35.1730   24.0240 H   0  0  0  0  0  0  0  0  0  0  0  0
   33.9000   33.8040   23.5070 H   0  0  0  0  0  0  0  0  0  0  0  0
   33.8090   40.6850   25.1700 H   0  0  0  0  0  0  0  0  0  0  0  0
   38.2950   37.0910   14.9330 F   0  0  0  0  0  0  0  0  0  0  0  0
   33.4900   39.3900   28.6650 O   0  0  0  0  0  0  0  0  0  0  0  0
   34.8570   38.9780   28.3750 C   0  0  0  0  0  0  0  0  0  0  0  0
   34.8810   38.4620   26.9310 C   0  0  0  0  0  0  0  0  0  0  0  0
   33.5160   38.8760   26.3180 C   0  0  1  0  0  0  0  0  0  0  0  0
   32.8310   39.7270   27.4210 C   0  0  0  0  0  0  0  0  0  0  0  0
   35.0700   38.1890   29.1280 H   0  0  0  0  0  0  0  0  0  0  0  0
   35.5120   39.8670   28.5120 H   0  0  0  0  0  0  0  0  0  0  0  0
   35.7340   38.9030   26.3690 H   0  0  0  0  0  0  0  0  0  0  0  0
   34.9900   37.3510   26.8990 H   0  0  0  0  0  0  0  0  0  0  0  0
   32.9000   37.9610   26.0930 H   0  0  0  0  0  0  0  0  0  0  0  0
   31.7680   39.4480   27.5790 H   0  0  0  0  0  0  0  0  0  0  0  0
   32.9520   40.8220   27.2570 H   0  0  0  0  0  0  0  0  0  0  0  0
  1  3  2  0  0  0  0
  1  7  1  0  0  0  0
  1 22  1  0  0  0  0
  2 12  1  0  0  0  0
  2 18  2  0  0  0  0
  2 19  1  0  0  0  0
  3 13  1  0  0  0  0
  3 15  1  0  0  0  0
  4 17  2  0  0  0  0
  4 20  1  0  0  0  0
  4 21  1  0  0  0  0
  5  6  1  0  0  0  0
  5 10  1  0  0  0  0
  5 11  2  0  0  0  0
  6 12  2  0  0  0  0
  6 23  1  0  0  0  0
  7  8  2  0  0  0  0
  7 31  1  0  0  0  0
  8  9  1  0  0  0  0
  8 24  1  0  0  0  0
  9 13  2  0  0  0  0
  9 25  1  0  0  0  0
 10 19  1  0  0  0  0
 10 20  2  0  0  0  0
 11 17  1  0  0  0  0
 11 26  1  0  0  0  0
 12 16  1  0  0  0  0
 13 16  1  0  0  0  0
 14 19  1  0  0  0  0
 14 27  1  0  0  0  0
 14 28  1  0  0  0  0
 14 29  1  0  0  0  0
 21 30  1  0  0  0  0
 21 35  1  0  0  0  0
 32 33  1  0  0  0  0
 32 36  1  0  0  0  0
 33 34  1  0  0  0  0
 33 37  1  0  0  0  0
 33 38  1  0  0  0  0
 34 35  1  0  0  0  0
 34 39  1  0  0  0  0
 34 40  1  0  0  0  0
 35 36  1  0  0  0  0
 35 41  1  1  0  0  0
 36 42  1  0  0  0  0
 36 43  1  0  0  0  0
M  END
$$$$
