p38a_2u
 OpenBabel02232411163D
Structure written by MMmdl.
 64 68  0  0  0  0  0  0  0  0999 V2000
   38.2070   36.4770   17.2600 C   0  0  0  0  0  0  0  0  0  0  0  0
   34.5400   35.2340   21.4770 C   0  0  0  0  0  0  0  0  0  0  0  0
   37.4400   36.0710   18.3490 C   0  0  0  0  0  0  0  0  0  0  0  0
   34.1300   39.4030   23.8920 C   0  0  0  0  0  0  0  0  0  0  0  0
   34.6780   38.1090   21.5180 C   0  0  0  0  0  0  0  0  0  0  0  0
   35.0350   37.4080   20.3150 C   0  0  0  0  0  0  0  0  0  0  0  0
   37.5340   36.6050   16.0370 C   0  0  0  0  0  0  0  0  0  0  0  0
   36.1760   36.3210   15.8730 C   0  0  0  0  0  0  0  0  0  0  0  0
   35.4300   35.9090   16.9820 C   0  0  0  0  0  0  0  0  0  0  0  0
   34.3690   37.3790   22.7030 C   0  0  0  0  0  0  0  0  0  0  0  0
   34.6280   39.5270   21.6050 C   0  0  0  0  0  0  0  0  0  0  0  0
   35.0110   36.0570   20.3250 C   0  0  0  0  0  0  0  0  0  0  0  0
   36.0660   35.7760   18.2200 C   0  0  0  0  0  0  0  0  0  0  0  0
   38.0040   35.9560   19.5440 F   0  0  0  0  0  0  0  0  0  0  0  0
   35.3580   35.1980   19.2830 O   0  0  0  0  0  0  0  0  0  0  0  0
   34.3670   40.1850   22.7440 N   0  0  0  0  0  0  0  0  0  0  0  0
   34.3550   34.0370   21.4300 O   0  0  0  0  0  0  0  0  0  0  0  0
   34.3050   35.9690   22.6910 N   0  0  0  0  0  0  0  0  0  0  0  0
   34.1190   38.0230   23.8870 N   0  0  0  0  0  0  0  0  0  0  0  0
   33.8240   40.0530   25.0650 N   0  0  0  0  0  0  0  0  0  0  0  0
   39.2690   36.7210   17.3610 H   0  0  0  0  0  0  0  0  0  0  0  0
   35.3250   37.9940   19.4400 H   0  0  0  0  0  0  0  0  0  0  0  0
   35.6880   36.4300   14.9010 H   0  0  0  0  0  0  0  0  0  0  0  0
   34.3580   35.7080   16.8760 H   0  0  0  0  0  0  0  0  0  0  0  0
   34.8030   40.1320   20.7010 H   0  0  0  0  0  0  0  0  0  0  0  0
   33.9310   41.0830   25.1270 H   0  0  0  0  0  0  0  0  0  0  0  0
   38.2200   37.0540   14.9890 F   0  0  0  0  0  0  0  0  0  0  0  0
   32.7060   39.4310   28.6670 C   0  0  0  0  0  0  0  0  0  0  0  0
   32.7180   40.0610   27.2680 C   0  0  0  0  0  0  0  0  0  0  0  0
   33.7470   39.3350   26.3760 C   0  0  0  0  0  0  0  0  0  0  0  0
   35.1320   39.3120   27.0600 C   0  0  0  0  0  0  0  0  0  0  0  0
   35.0070   38.7230   28.4700 C   0  0  0  0  0  0  0  0  0  0  0  0
   34.0240   39.4300   29.2620 O   0  0  0  0  0  0  0  0  0  0  0  0
   32.3230   38.3850   28.6310 H   0  0  0  0  0  0  0  0  0  0  0  0
   32.1260   40.0590   29.3820 H   0  0  0  0  0  0  0  0  0  0  0  0
   32.9810   41.1410   27.3520 H   0  0  0  0  0  0  0  0  0  0  0  0
   31.7030   39.9810   26.8100 H   0  0  0  0  0  0  0  0  0  0  0  0
   33.3990   38.2790   26.1950 H   0  0  0  0  0  0  0  0  0  0  0  0
   35.8360   38.6840   26.4640 H   0  0  0  0  0  0  0  0  0  0  0  0
   35.5410   40.3480   27.1170 H   0  0  0  0  0  0  0  0  0  0  0  0
   34.7280   37.6440   28.4270 H   0  0  0  0  0  0  0  0  0  0  0  0
   35.9420   38.8800   29.0560 H   0  0  0  0  0  0  0  0  0  0  0  0
   34.0620   32.9270   24.9800 C   0  0  0  0  0  0  0  0  0  0  0  0
   34.8130   34.1280   24.3600 C   0  0  0  0  0  0  0  0  0  0  0  0
   33.8510   35.2600   23.9530 C   0  0  0  0  0  0  0  0  0  0  0  0
   32.4070   34.7550   23.7800 C   0  0  0  0  0  0  0  0  0  0  0  0
   31.8990   34.2050   25.1280 C   0  0  0  0  0  0  0  0  0  0  0  0
   34.8080   32.3780   25.6130 H   0  0  0  0  0  0  0  0  0  0  0  0
   33.7080   32.2490   24.1610 H   0  0  0  0  0  0  0  0  0  0  0  0
   35.4000   33.7430   23.4960 H   0  0  0  0  0  0  0  0  0  0  0  0
   35.5300   34.5320   25.1190 H   0  0  0  0  0  0  0  0  0  0  0  0
   33.8580   36.0150   24.7960 H   0  0  0  0  0  0  0  0  0  0  0  0
   31.7390   35.5980   23.4750 H   0  0  0  0  0  0  0  0  0  0  0  0
   32.3580   33.9660   22.9930 H   0  0  0  0  0  0  0  0  0  0  0  0
   31.6830   35.0750   25.8120 H   0  0  0  0  0  0  0  0  0  0  0  0
   30.9570   33.6300   24.9330 H   0  0  0  0  0  0  0  0  0  0  0  0
   32.9230   33.3690   25.8340 N   0  0  0  0  0  0  0  0  0  0  0  0
   32.3590   32.3500   27.1000 S   0  0  0  0  0  0  0  0  0  0  0  0
   31.5250   31.2640   26.5460 O   0  0  0  0  0  0  0  0  0  0  0  0
   31.5810   33.1930   28.0310 O   0  0  0  0  0  0  0  0  0  0  0  0
   33.7770   31.7230   27.8710 C   0  0  0  0  0  0  0  0  0  0  0  0
   34.5690   32.5100   28.0110 H   0  0  0  0  0  0  0  0  0  0  0  0
   33.5470   31.3380   28.9040 H   0  0  0  0  0  0  0  0  0  0  0  0
   34.2360   30.8630   27.3180 H   0  0  0  0  0  0  0  0  0  0  0  0
  1  3  2  0  0  0  0
  1  7  1  0  0  0  0
  1 21  1  0  0  0  0
  2 12  1  0  0  0  0
  2 17  2  0  0  0  0
  2 18  1  0  0  0  0
  3 13  1  0  0  0  0
  3 14  1  0  0  0  0
  4 16  2  0  0  0  0
  4 19  1  0  0  0  0
  4 20  1  0  0  0  0
  5  6  1  0  0  0  0
  5 10  1  0  0  0  0
  5 11  2  0  0  0  0
  6 12  2  0  0  0  0
  6 22  1  0  0  0  0
  7  8  2  0  0  0  0
  7 27  1  0  0  0  0
  8  9  1  0  0  0  0
  8 23  1  0  0  0  0
  9 13  2  0  0  0  0
  9 24  1  0  0  0  0
 10 18  1  0  0  0  0
 10 19  2  0  0  0  0
 11 16  1  0  0  0  0
 11 25  1  0  0  0  0
 12 15  1  0  0  0  0
 13 15  1  0  0  0  0
 18 45  1  0  0  0  0
 20 26  1  0  0  0  0
 20 30  1  0  0  0  0
 28 29  1  0  0  0  0
 28 33  1  0  0  0  0
 28 34  1  0  0  0  0
 28 35  1  0  0  0  0
 29 30  1  0  0  0  0
 29 36  1  0  0  0  0
 29 37  1  0  0  0  0
 30 31  1  0  0  0  0
 30 38  1  0  0  0  0
 31 32  1  0  0  0  0
 31 39  1  0  0  0  0
 31 40  1  0  0  0  0
 32 33  1  0  0  0  0
 32 41  1  0  0  0  0
 32 42  1  0  0  0  0
 43 44  1  0  0  0  0
 43 48  1  0  0  0  0
 43 49  1  0  0  0  0
 43 57  1  0  0  0  0
 44 45  1  0  0  0  0
 44 50  1  0  0  0  0
 44 51  1  0  0  0  0
 45 46  1  0  0  0  0
 45 52  1  0  0  0  0
 46 47  1  0  0  0  0
 46 53  1  0  0  0  0
 46 54  1  0  0  0  0
 47 55  1  0  0  0  0
 47 56  1  0  0  0  0
 47 57  1  0  0  0  0
 57 58  1  0  0  0  0
 58 59  2  0  0  0  0
 58 60  2  0  0  0  0
 58 61  1  0  0  0  0
 61 62  1  0  0  0  0
 61 63  1  0  0  0  0
 61 64  1  0  0  0  0
M  END
$$$$
