ejm_42
                    3D
 Schrodinger Suite 2022-3.
 35 36  0  0  1  0  0  0  0  0999 V2000
   -3.1450   22.5800  -29.6170 C   0  0  0  0  0  0  0  0  0  0  0  0
   -3.6080   21.4990  -28.8490 C   0  0  0  0  0  0  0  0  0  0  0  0
   -2.7960   20.8700  -27.9050 C   0  0  0  0  0  0  0  0  0  0  0  0
   -5.1650   25.2060  -31.5070 C   0  0  0  0  0  0  0  0  0  0  0  0
   -4.0180   23.0950  -30.7240 C   0  0  0  0  0  0  0  0  0  0  0  0
   -5.8420   24.6400  -32.5990 C   0  0  0  0  0  0  0  0  0  0  0  0
   -6.6990   25.4600  -33.3470 C   0  0  0  0  0  0  0  0  0  0  0  0
   -1.8540   23.0540  -29.3540 C   0  0  0  0  0  0  0  0  0  0  0  0
   -1.4970   21.3420  -27.6930 C   0  0  0  0  0  0  0  0  0  0  0  0
   -1.0260   22.4470  -28.4060 C   0  0  0  0  0  0  0  0  0  0  0  0
   -5.2140   20.9460  -29.0790 Cl  0  0  0  0  0  0  0  0  0  0  0  0
   -4.4390   22.3680  -31.5990 O   0  0  0  0  0  0  0  0  0  0  0  0
   -4.3160   24.4690  -30.6340 N   0  0  0  0  0  0  0  0  0  0  0  0
   -6.8950   26.7760  -33.0850 N   0  0  0  0  0  0  0  0  0  0  0  0
   -6.2100   27.3230  -32.0170 C   0  0  0  0  0  0  0  0  0  0  0  0
   -5.3360   26.5750  -31.2160 C   0  0  0  0  0  0  0  0  0  0  0  0
   -6.4780   28.7020  -31.7930 N   0  0  0  0  0  0  0  0  0  0  0  0
   -5.7490   29.5690  -30.9350 C   0  0  0  0  0  0  0  0  0  0  0  0
   -4.8570   29.1420  -30.2260 O   0  0  0  0  0  0  0  0  0  0  0  0
   -6.1810   31.0190  -30.9810 C   0  0  0  0  0  0  0  0  0  0  0  0
   -1.2450   24.4240  -30.1900 Cl  0  0  0  0  0  0  0  0  0  0  0  0
   -3.1540   20.0130  -27.3280 H   0  0  0  0  0  0  0  0  0  0  0  0
   -5.7350   23.5850  -32.8640 H   0  0  0  0  0  0  0  0  0  0  0  0
   -7.2640   25.0470  -34.2000 H   0  0  0  0  0  0  0  0  0  0  0  0
   -0.8480   20.8490  -26.9610 H   0  0  0  0  0  0  0  0  0  0  0  0
   -0.0200   22.8270  -28.2090 H   0  0  0  0  0  0  0  0  0  0  0  0
   -3.8990   25.0020  -29.8490 H   0  0  0  0  0  0  0  0  0  0  0  0
   -4.8000   27.0440  -30.3840 H   0  0  0  0  0  0  0  0  0  0  0  0
   -7.3510   29.0690  -32.2340 H   0  0  0  0  0  0  0  0  0  0  0  0
   -6.9180   31.2260  -31.7990 H   0  0  0  0  0  0  0  0  0  0  0  0
   -6.6870   31.2860  -30.0180 H   0  0  0  0  0  0  0  0  0  0  0  0
   -4.9600   31.9220  -31.1640 C   0  0  0  0  0  0  0  0  0  0  0  0
   -5.3070   32.9810  -31.2460 H   0  0  0  0  0  0  0  0  0  0  0  0
   -4.2730   31.8440  -30.2900 H   0  0  0  0  0  0  0  0  0  0  0  0
   -4.4070   31.6550  -32.0890 H   0  0  0  0  0  0  0  0  0  0  0  0
  1  2  2  0  0  0  0
  1  5  1  0  0  0  0
  1  8  1  0  0  0  0
  2  3  1  0  0  0  0
  2 11  1  0  0  0  0
  3  9  2  0  0  0  0
  3 22  1  0  0  0  0
  4  6  1  0  0  0  0
  4 13  1  0  0  0  0
  4 16  2  0  0  0  0
  5 12  2  0  0  0  0
  5 13  1  0  0  0  0
  6  7  2  0  0  0  0
  6 23  1  0  0  0  0
  7 14  1  0  0  0  0
  7 24  1  0  0  0  0
  8 10  2  0  0  0  0
  8 21  1  0  0  0  0
  9 10  1  0  0  0  0
  9 25  1  0  0  0  0
 10 26  1  0  0  0  0
 13 27  1  0  0  0  0
 14 15  2  0  0  0  0
 15 16  1  0  0  0  0
 15 17  1  0  0  0  0
 16 28  1  0  0  0  0
 17 18  1  0  0  0  0
 17 29  1  0  0  0  0
 18 19  2  0  0  0  0
 18 20  1  0  0  0  0
 20 30  1  0  0  0  0
 20 31  1  0  0  0  0
 20 32  1  0  0  0  0
 32 33  1  0  0  0  0
 32 34  1  0  0  0  0
 32 35  1  0  0  0  0
M  END
$$$$
