ejm_47
 OpenBabel02232411173D
Structure written by MMmdl.
 39 41  0  0  0  0  0  0  0  0999 V2000
   -1.6410   21.5400  -27.6230 C   0  0  0  0  0  0  0  0  0  0  0  0
   -2.9260   21.0560  -27.8800 C   0  0  0  0  0  0  0  0  0  0  0  0
   -3.6920   21.6360  -28.8930 C   0  0  0  0  0  0  0  0  0  0  0  0
   -3.2100   22.7110  -29.6560 C   0  0  0  0  0  0  0  0  0  0  0  0
   -1.9250   23.1850  -29.3630 C   0  0  0  0  0  0  0  0  0  0  0  0
   -1.1350   22.6110  -28.3650 C   0  0  0  0  0  0  0  0  0  0  0  0
   -1.2740   24.5140  -30.2280 Cl  0  0  0  0  0  0  0  0  0  0  0  0
   -4.0580   23.2510  -30.7720 C   0  0  0  0  0  0  0  0  0  0  0  0
   -4.4750   22.5500  -31.6670 O   0  0  0  0  0  0  0  0  0  0  0  0
   -4.3420   24.6280  -30.6520 N   0  0  0  0  0  0  0  0  0  0  0  0
   -5.1590   25.4050  -31.5210 C   0  0  0  0  0  0  0  0  0  0  0  0
   -5.8360   24.8750  -32.6300 C   0  0  0  0  0  0  0  0  0  0  0  0
   -6.6590   25.7300  -33.3790 C   0  0  0  0  0  0  0  0  0  0  0  0
   -6.8200   27.0480  -33.1020 N   0  0  0  0  0  0  0  0  0  0  0  0
   -6.1350   27.5610  -32.0160 C   0  0  0  0  0  0  0  0  0  0  0  0
   -5.2970   26.7750  -31.2110 C   0  0  0  0  0  0  0  0  0  0  0  0
   -6.3700   28.9450  -31.7770 N   0  0  0  0  0  0  0  0  0  0  0  0
   -5.6250   29.7790  -30.9000 C   0  0  0  0  0  0  0  0  0  0  0  0
   -4.7400   29.3170  -30.2040 O   0  0  0  0  0  0  0  0  0  0  0  0
   -5.2530   21.0080  -29.2180 Cl  0  0  0  0  0  0  0  0  0  0  0  0
   -1.0280   21.0840  -26.8370 H   0  0  0  0  0  0  0  0  0  0  0  0
   -3.3160   20.2360  -27.2750 H   0  0  0  0  0  0  0  0  0  0  0  0
   -0.1320   22.9920  -28.1470 H   0  0  0  0  0  0  0  0  0  0  0  0
   -3.9280   25.1350  -29.8480 H   0  0  0  0  0  0  0  0  0  0  0  0
   -5.7570   23.8210  -32.9080 H   0  0  0  0  0  0  0  0  0  0  0  0
   -7.2240   25.3420  -34.2420 H   0  0  0  0  0  0  0  0  0  0  0  0
   -4.7620   27.2150  -30.3640 H   0  0  0  0  0  0  0  0  0  0  0  0
   -7.2270   29.3390  -32.2240 H   0  0  0  0  0  0  0  0  0  0  0  0
   -6.0190   31.2390  -30.9290 C   0  0  0  0  0  0  0  0  0  0  0  0
   -5.7550   32.0130  -29.6060 C   0  0  0  0  0  0  0  0  0  0  0  0
   -4.7210   32.9140  -30.3270 C   0  0  0  0  0  0  0  0  0  0  0  0
   -4.9740   32.1470  -31.6450 C   0  0  0  0  0  0  0  0  0  0  0  0
   -6.6470   32.5620  -29.2500 H   0  0  0  0  0  0  0  0  0  0  0  0
   -5.3210   31.4100  -28.7900 H   0  0  0  0  0  0  0  0  0  0  0  0
   -5.0150   33.9800  -30.3620 H   0  0  0  0  0  0  0  0  0  0  0  0
   -3.6920   32.8230  -29.9330 H   0  0  0  0  0  0  0  0  0  0  0  0
   -5.4410   32.7720  -32.4290 H   0  0  0  0  0  0  0  0  0  0  0  0
   -4.0970   31.6070  -32.0380 H   0  0  0  0  0  0  0  0  0  0  0  0
   -7.0510   31.3960  -31.3090 H   0  0  0  0  0  0  0  0  0  0  0  0
  1  2  2  0  0  0  0
  1  6  1  0  0  0  0
  1 21  1  0  0  0  0
  2  3  1  0  0  0  0
  2 22  1  0  0  0  0
  3  4  2  0  0  0  0
  3 20  1  0  0  0  0
  4  5  1  0  0  0  0
  4  8  1  0  0  0  0
  5  6  2  0  0  0  0
  5  7  1  0  0  0  0
  6 23  1  0  0  0  0
  8  9  2  0  0  0  0
  8 10  1  0  0  0  0
 10 11  1  0  0  0  0
 10 24  1  0  0  0  0
 11 12  2  0  0  0  0
 11 16  1  0  0  0  0
 12 13  1  0  0  0  0
 12 25  1  0  0  0  0
 13 14  2  0  0  0  0
 13 26  1  0  0  0  0
 14 15  1  0  0  0  0
 15 16  2  0  0  0  0
 15 17  1  0  0  0  0
 16 27  1  0  0  0  0
 17 18  1  0  0  0  0
 17 28  1  0  0  0  0
 18 19  2  0  0  0  0
 18 29  1  0  0  0  0
 29 30  1  0  0  0  0
 29 32  1  0  0  0  0
 29 39  1  0  0  0  0
 30 31  1  0  0  0  0
 30 33  1  0  0  0  0
 30 34  1  0  0  0  0
 31 32  1  0  0  0  0
 31 35  1  0  0  0  0
 31 36  1  0  0  0  0
 32 37  1  0  0  0  0
 32 38  1  0  0  0  0
M  END
$$$$
