ejm_31
                    3D
 Schrodinger Suite 2022-3.
 32 33  0  0  1  0  0  0  0  0999 V2000
   -3.1210   22.5700  -29.6150 C   0  0  0  0  0  0  0  0  0  0  0  0
   -3.5770   21.4880  -28.8430 C   0  0  0  0  0  0  0  0  0  0  0  0
   -2.7570   20.8610  -27.9060 C   0  0  0  0  0  0  0  0  0  0  0  0
   -5.1730   25.1720  -31.5020 C   0  0  0  0  0  0  0  0  0  0  0  0
   -4.0000   23.0760  -30.7210 C   0  0  0  0  0  0  0  0  0  0  0  0
   -5.8410   24.5960  -32.5950 C   0  0  0  0  0  0  0  0  0  0  0  0
   -6.7110   25.4030  -33.3430 C   0  0  0  0  0  0  0  0  0  0  0  0
   -1.8320   23.0510  -29.3570 C   0  0  0  0  0  0  0  0  0  0  0  0
   -1.4590   21.3380  -27.7000 C   0  0  0  0  0  0  0  0  0  0  0  0
   -0.9970   22.4470  -28.4130 C   0  0  0  0  0  0  0  0  0  0  0  0
   -5.1860   20.9360  -29.0620 Cl  0  0  0  0  0  0  0  0  0  0  0  0
   -4.4170   22.3440  -31.5940 O   0  0  0  0  0  0  0  0  0  0  0  0
   -4.3110   24.4470  -30.6320 N   0  0  0  0  0  0  0  0  0  0  0  0
   -6.9280   26.7150  -33.0790 N   0  0  0  0  0  0  0  0  0  0  0  0
   -6.2530   27.2700  -32.0100 C   0  0  0  0  0  0  0  0  0  0  0  0
   -5.3680   26.5370  -31.2070 C   0  0  0  0  0  0  0  0  0  0  0  0
   -6.5490   28.6420  -31.7780 N   0  0  0  0  0  0  0  0  0  0  0  0
   -5.7980   29.5380  -30.9730 C   0  0  0  0  0  0  0  0  0  0  0  0
   -4.8400   29.1530  -30.3280 O   0  0  0  0  0  0  0  0  0  0  0  0
   -6.2820   30.9540  -30.9930 C   0  0  0  0  0  0  0  0  0  0  0  0
   -1.2340   24.4260  -30.1920 Cl  0  0  0  0  0  0  0  0  0  0  0  0
   -3.1070   20.0010  -27.3300 H   0  0  0  0  0  0  0  0  0  0  0  0
   -5.7160   23.5430  -32.8620 H   0  0  0  0  0  0  0  0  0  0  0  0
   -7.2690   24.9830  -34.1970 H   0  0  0  0  0  0  0  0  0  0  0  0
   -0.8040   20.8480  -26.9710 H   0  0  0  0  0  0  0  0  0  0  0  0
    0.0080   22.8320  -28.2190 H   0  0  0  0  0  0  0  0  0  0  0  0
   -3.8970   24.9850  -29.8500 H   0  0  0  0  0  0  0  0  0  0  0  0
   -4.8420   27.0140  -30.3730 H   0  0  0  0  0  0  0  0  0  0  0  0
   -7.4330   28.9930  -32.2080 H   0  0  0  0  0  0  0  0  0  0  0  0
   -7.2660   31.0970  -31.5030 H   0  0  0  0  0  0  0  0  0  0  0  0
   -5.5370   31.6020  -31.5280 H   0  0  0  0  0  0  0  0  0  0  0  0
   -6.3730   31.3580  -29.9530 H   0  0  0  0  0  0  0  0  0  0  0  0
  1  2  2  0  0  0  0
  1  5  1  0  0  0  0
  1  8  1  0  0  0  0
  2  3  1  0  0  0  0
  2 11  1  0  0  0  0
  3  9  2  0  0  0  0
  3 22  1  0  0  0  0
  4  6  1  0  0  0  0
  4 13  1  0  0  0  0
  4 16  2  0  0  0  0
  5 12  2  0  0  0  0
  5 13  1  0  0  0  0
  6  7  2  0  0  0  0
  6 23  1  0  0  0  0
  7 14  1  0  0  0  0
  7 24  1  0  0  0  0
  8 10  2  0  0  0  0
  8 21  1  0  0  0  0
  9 10  1  0  0  0  0
  9 25  1  0  0  0  0
 10 26  1  0  0  0  0
 13 27  1  0  0  0  0
 14 15  2  0  0  0  0
 15 16  1  0  0  0  0
 15 17  1  0  0  0  0
 16 28  1  0  0  0  0
 17 18  1  0  0  0  0
 17 29  1  0  0  0  0
 18 19  2  0  0  0  0
 18 20  1  0  0  0  0
 20 30  1  0  0  0  0
 20 31  1  0  0  0  0
 20 32  1  0  0  0  0
M  END
$$$$
