2l
                    3D
 Schrodinger Suite 2022-3.
 49 52  0  0  1  0  0  0  0  0999 V2000
   27.1410    8.9590   30.4560 C   0  0  0  0  0  0  0  0  0  0  0  0
   28.5020    9.5490   30.8460 C   0  0  0  0  0  0  0  0  0  0  0  0
   28.5780    8.2490   32.8840 C   0  0  0  0  0  0  0  0  0  0  0  0
   27.2390    7.5730   32.5690 C   0  0  0  0  0  0  0  0  0  0  0  0
   15.9290   10.5140   31.6890 C   0  0  0  0  0  0  0  0  0  0  0  0
   29.2670    8.6480   31.6790 O   0  0  0  0  0  0  0  0  0  0  0  0
   21.3300   12.5570   31.3140 C   0  0  0  0  0  0  0  0  0  0  0  0
   17.2190   11.0200   31.8210 C   0  0  0  0  0  0  0  0  0  0  0  0
   23.9420    8.4930   31.0790 C   0  0  0  0  0  0  0  0  0  0  0  0
   26.3710    8.5310   31.7260 C   0  0  0  0  0  0  0  0  0  0  0  0
   21.5090    9.7370   30.7560 C   0  0  0  0  0  0  0  0  0  0  0  0
   20.2290   10.3870   30.6930 C   0  0  0  0  0  0  0  0  0  0  0  0
   15.2500   10.8220   30.5040 C   0  0  0  0  0  0  0  0  0  0  0  0
   15.8030   11.5990   29.4840 C   0  0  0  0  0  0  0  0  0  0  0  0
   17.0950   12.1120   29.6470 C   0  0  0  0  0  0  0  0  0  0  0  0
   22.6570   10.4620   31.1920 C   0  0  0  0  0  0  0  0  0  0  0  0
   21.6970    8.3700   30.4180 C   0  0  0  0  0  0  0  0  0  0  0  0
   20.1540   11.7030   30.9930 C   0  0  0  0  0  0  0  0  0  0  0  0
   17.7950   11.8350   30.8250 C   0  0  0  0  0  0  0  0  0  0  0  0
   23.7770   12.5930   31.9450 C   0  0  0  0  0  0  0  0  0  0  0  0
   14.0260   10.3270   30.3340 F   0  0  0  0  0  0  0  0  0  0  0  0
   19.0090   12.4950   31.0490 O   0  0  0  0  0  0  0  0  0  0  0  0
   22.8700    7.7370   30.5640 N   0  0  0  0  0  0  0  0  0  0  0  0
   21.3080   13.7590   31.4600 O   0  0  0  0  0  0  0  0  0  0  0  0
   22.5740   11.8440   31.4390 N   0  0  0  0  0  0  0  0  0  0  0  0
   23.8710    9.8440   31.3520 N   0  0  0  0  0  0  0  0  0  0  0  0
   25.1060    7.8190   31.3740 N   0  0  0  0  0  0  0  0  0  0  0  0
   15.2530   11.7980   28.5620 H   0  0  0  0  0  0  0  0  0  0  0  0
   15.4860    9.8800   32.4570 H   0  0  0  0  0  0  0  0  0  0  0  0
   19.3620    9.7890   30.4100 H   0  0  0  0  0  0  0  0  0  0  0  0
   20.8570    7.7850   30.0090 H   0  0  0  0  0  0  0  0  0  0  0  0
   27.2840    8.0720   29.7970 H   0  0  0  0  0  0  0  0  0  0  0  0
   26.5590    9.7290   29.8970 H   0  0  0  0  0  0  0  0  0  0  0  0
   28.3760   10.5170   31.3840 H   0  0  0  0  0  0  0  0  0  0  0  0
   29.1670    9.6600   29.9600 H   0  0  0  0  0  0  0  0  0  0  0  0
   29.2960    7.5290   33.3410 H   0  0  0  0  0  0  0  0  0  0  0  0
   28.4300    9.1450   33.5310 H   0  0  0  0  0  0  0  0  0  0  0  0
   26.7150    7.3180   33.5220 H   0  0  0  0  0  0  0  0  0  0  0  0
   27.4180    6.6230   32.0070 H   0  0  0  0  0  0  0  0  0  0  0  0
   26.1160    9.4410   32.3380 H   0  0  0  0  0  0  0  0  0  0  0  0
   24.7100   12.0460   31.6290 H   0  0  0  0  0  0  0  0  0  0  0  0
   23.7810   13.6070   31.4610 H   0  0  0  0  0  0  0  0  0  0  0  0
   25.2290    6.8490   31.0180 H   0  0  0  0  0  0  0  0  0  0  0  0
   23.7520   12.7290   33.4680 C   0  0  0  0  0  0  0  0  0  0  0  0
   24.7610   13.0760   33.8070 H   0  0  0  0  0  0  0  0  0  0  0  0
   22.9980   13.4750   33.7980 H   0  0  0  0  0  0  0  0  0  0  0  0
   23.5450   11.7480   33.9480 H   0  0  0  0  0  0  0  0  0  0  0  0
   17.9330   10.7260   32.9000 F   0  0  0  0  0  0  0  0  0  0  0  0
   17.5480   12.7160   28.8540 H   0  0  0  0  0  0  0  0  0  0  0  0
  1  2  1  0  0  0  0
  1 10  1  0  0  0  0
  1 32  1  0  0  0  0
  1 33  1  0  0  0  0
  2  6  1  0  0  0  0
  2 34  1  0  0  0  0
  2 35  1  0  0  0  0
  3  4  1  0  0  0  0
  3  6  1  0  0  0  0
  3 36  1  0  0  0  0
  3 37  1  0  0  0  0
  4 10  1  0  0  0  0
  4 38  1  0  0  0  0
  4 39  1  0  0  0  0
  5  8  1  0  0  0  0
  5 13  2  0  0  0  0
  5 29  1  0  0  0  0
  7 18  1  0  0  0  0
  7 24  2  0  0  0  0
  7 25  1  0  0  0  0
  8 19  2  0  0  0  0
  8 48  1  0  0  0  0
  9 23  1  0  0  0  0
  9 26  2  0  0  0  0
  9 27  1  0  0  0  0
 10 27  1  0  0  0  0
 10 40  1  0  0  0  0
 11 12  1  0  0  0  0
 11 16  2  0  0  0  0
 11 17  1  0  0  0  0
 12 18  2  0  0  0  0
 12 30  1  0  0  0  0
 13 14  1  0  0  0  0
 13 21  1  0  0  0  0
 14 15  2  0  0  0  0
 14 28  1  0  0  0  0
 15 19  1  0  0  0  0
 15 49  1  0  0  0  0
 16 25  1  0  0  0  0
 16 26  1  0  0  0  0
 17 23  2  0  0  0  0
 17 31  1  0  0  0  0
 18 22  1  0  0  0  0
 19 22  1  0  0  0  0
 20 25  1  0  0  0  0
 20 41  1  0  0  0  0
 20 42  1  0  0  0  0
 20 44  1  0  0  0  0
 27 43  1  0  0  0  0
 44 45  1  0  0  0  0
 44 46  1  0  0  0  0
 44 47  1  0  0  0  0
M  END
$$$$
