p38a_2o
 OpenBabel02232411163D
Structure written by MMmdl.
 55 58  0  0  0  0  0  0  0  0999 V2000
   36.3300   35.9380   15.9250 C   0  0  0  0  0  0  0  0  0  0  0  0
   34.5640   35.0470   21.5330 C   0  0  0  0  0  0  0  0  0  0  0  0
   35.6340   35.4990   17.0470 C   0  0  0  0  0  0  0  0  0  0  0  0
   34.2600   39.2010   23.9980 C   0  0  0  0  0  0  0  0  0  0  0  0
   34.7960   37.9150   21.6190 C   0  0  0  0  0  0  0  0  0  0  0  0
   35.1590   37.2160   20.4150 C   0  0  0  0  0  0  0  0  0  0  0  0
   37.6220   36.4320   16.1450 C   0  0  0  0  0  0  0  0  0  0  0  0
   38.2330   36.4610   17.4020 C   0  0  0  0  0  0  0  0  0  0  0  0
   37.5010   36.0450   18.5190 C   0  0  0  0  0  0  0  0  0  0  0  0
   34.4510   37.1850   22.7930 C   0  0  0  0  0  0  0  0  0  0  0  0
   34.7740   39.3320   21.7150 C   0  0  0  0  0  0  0  0  0  0  0  0
   35.0910   35.8650   20.4060 C   0  0  0  0  0  0  0  0  0  0  0  0
   36.1990   35.5670   18.3370 C   0  0  0  0  0  0  0  0  0  0  0  0
   34.4160   34.9870   16.9270 F   0  0  0  0  0  0  0  0  0  0  0  0
   35.4270   35.0040   19.3620 O   0  0  0  0  0  0  0  0  0  0  0  0
   34.5110   39.9870   22.8560 N   0  0  0  0  0  0  0  0  0  0  0  0
   34.3410   33.8590   21.4910 O   0  0  0  0  0  0  0  0  0  0  0  0
   34.3330   35.7820   22.7540 N   0  0  0  0  0  0  0  0  0  0  0  0
   34.2210   37.8200   23.9870 N   0  0  0  0  0  0  0  0  0  0  0  0
   33.9960   39.8570   25.1750 N   0  0  0  0  0  0  0  0  0  0  0  0
   35.8840   35.9250   14.9270 H   0  0  0  0  0  0  0  0  0  0  0  0
   35.4940   37.8070   19.5600 H   0  0  0  0  0  0  0  0  0  0  0  0
   39.2550   36.8330   17.5180 H   0  0  0  0  0  0  0  0  0  0  0  0
   37.9400   36.1200   19.5160 H   0  0  0  0  0  0  0  0  0  0  0  0
   34.9730   39.9450   20.8190 H   0  0  0  0  0  0  0  0  0  0  0  0
   34.0320   40.8930   25.2130 H   0  0  0  0  0  0  0  0  0  0  0  0
   38.2860   36.9300   15.1040 F   0  0  0  0  0  0  0  0  0  0  0  0
   32.6770   39.1720   28.6970 C   0  0  0  0  0  0  0  0  0  0  0  0
   32.7070   39.7580   27.2780 C   0  0  0  0  0  0  0  0  0  0  0  0
   33.8930   39.1600   26.4920 C   0  0  0  0  0  0  0  0  0  0  0  0
   35.2100   39.3480   27.2770 C   0  0  0  0  0  0  0  0  0  0  0  0
   35.0610   38.7860   28.6950 C   0  0  0  0  0  0  0  0  0  0  0  0
   33.9310   39.3690   29.3860 O   0  0  0  0  0  0  0  0  0  0  0  0
   32.4410   38.0830   28.6670 H   0  0  0  0  0  0  0  0  0  0  0  0
   31.9580   39.7270   29.3430 H   0  0  0  0  0  0  0  0  0  0  0  0
   32.8060   40.8680   27.3310 H   0  0  0  0  0  0  0  0  0  0  0  0
   31.7520   39.5140   26.7540 H   0  0  0  0  0  0  0  0  0  0  0  0
   33.7050   38.0640   26.3200 H   0  0  0  0  0  0  0  0  0  0  0  0
   36.0360   38.8130   26.7510 H   0  0  0  0  0  0  0  0  0  0  0  0
   35.4650   40.4350   27.3220 H   0  0  0  0  0  0  0  0  0  0  0  0
   34.9350   37.6790   28.6720 H   0  0  0  0  0  0  0  0  0  0  0  0
   35.9160   39.0920   29.3420 H   0  0  0  0  0  0  0  0  0  0  0  0
   33.8470   35.0490   23.9800 C   0  0  0  0  0  0  0  0  0  0  0  0
   34.0640   33.9570   23.8240 H   0  0  0  0  0  0  0  0  0  0  0  0
   34.4350   35.4340   24.8640 H   0  0  0  0  0  0  0  0  0  0  0  0
   32.3550   35.3000   24.2060 C   0  0  0  0  0  0  0  0  0  0  0  0
   32.2310   36.3660   24.5690 H   0  0  0  0  0  0  0  0  0  0  0  0
   31.7990   35.2590   23.2310 H   0  0  0  0  0  0  0  0  0  0  0  0
   31.5660   34.2220   25.3630 S   0  0  0  0  0  0  0  0  0  0  0  0
   32.4430   33.8720   26.4990 O   0  0  0  0  0  0  0  0  0  0  0  0
   31.1270   32.9910   24.6620 O   0  0  0  0  0  0  0  0  0  0  0  0
   30.2010   35.1530   25.8850 C   0  0  0  0  0  0  0  0  0  0  0  0
   29.5580   35.4940   25.0330 H   0  0  0  0  0  0  0  0  0  0  0  0
   29.5300   34.6050   26.5960 H   0  0  0  0  0  0  0  0  0  0  0  0
   30.5030   36.0850   26.4390 H   0  0  0  0  0  0  0  0  0  0  0  0
  1  3  2  0  0  0  0
  1  7  1  0  0  0  0
  1 21  1  0  0  0  0
  2 12  1  0  0  0  0
  2 17  2  0  0  0  0
  2 18  1  0  0  0  0
  3 13  1  0  0  0  0
  3 14  1  0  0  0  0
  4 16  2  0  0  0  0
  4 19  1  0  0  0  0
  4 20  1  0  0  0  0
  5  6  1  0  0  0  0
  5 10  1  0  0  0  0
  5 11  2  0  0  0  0
  6 12  2  0  0  0  0
  6 22  1  0  0  0  0
  7  8  2  0  0  0  0
  7 27  1  0  0  0  0
  8  9  1  0  0  0  0
  8 23  1  0  0  0  0
  9 13  2  0  0  0  0
  9 24  1  0  0  0  0
 10 18  1  0  0  0  0
 10 19  2  0  0  0  0
 11 16  1  0  0  0  0
 11 25  1  0  0  0  0
 12 15  1  0  0  0  0
 13 15  1  0  0  0  0
 18 43  1  0  0  0  0
 20 26  1  0  0  0  0
 20 30  1  0  0  0  0
 28 29  1  0  0  0  0
 28 33  1  0  0  0  0
 28 34  1  0  0  0  0
 28 35  1  0  0  0  0
 29 30  1  0  0  0  0
 29 36  1  0  0  0  0
 29 37  1  0  0  0  0
 30 31  1  0  0  0  0
 30 38  1  0  0  0  0
 31 32  1  0  0  0  0
 31 39  1  0  0  0  0
 31 40  1  0  0  0  0
 32 33  1  0  0  0  0
 32 41  1  0  0  0  0
 32 42  1  0  0  0  0
 43 44  1  0  0  0  0
 43 45  1  0  0  0  0
 43 46  1  0  0  0  0
 46 47  1  0  0  0  0
 46 48  1  0  0  0  0
 46 49  1  0  0  0  0
 49 50  2  0  0  0  0
 49 51  2  0  0  0  0
 49 52  1  0  0  0  0
 52 53  1  0  0  0  0
 52 54  1  0  0  0  0
 52 55  1  0  0  0  0
M  END
$$$$
