2g
                    3D
 Schrodinger Suite 2022-3.
 46 49  0  0  1  0  0  0  0  0999 V2000
   27.1270    8.9430   30.4480 C   0  0  0  0  0  0  0  0  0  0  0  0
   28.4860    9.5340   30.8440 C   0  0  0  0  0  0  0  0  0  0  0  0
   28.5470    8.2430   32.8890 C   0  0  0  0  0  0  0  0  0  0  0  0
   27.2070    7.5710   32.5700 C   0  0  0  0  0  0  0  0  0  0  0  0
   15.9170   10.5110   31.7540 C   0  0  0  0  0  0  0  0  0  0  0  0
   29.2440    8.6360   31.6860 O   0  0  0  0  0  0  0  0  0  0  0  0
   21.2830   12.5300   31.2870 C   0  0  0  0  0  0  0  0  0  0  0  0
   17.2140   11.0110   31.8300 C   0  0  0  0  0  0  0  0  0  0  0  0
   23.9190    8.4820   31.0570 C   0  0  0  0  0  0  0  0  0  0  0  0
   26.3470    8.5250   31.7150 C   0  0  0  0  0  0  0  0  0  0  0  0
   21.4760    9.7100   30.7260 C   0  0  0  0  0  0  0  0  0  0  0  0
   20.1970   10.3580   30.6470 C   0  0  0  0  0  0  0  0  0  0  0  0
   15.1600   10.7860   30.6090 C   0  0  0  0  0  0  0  0  0  0  0  0
   15.7010   11.5430   29.5660 C   0  0  0  0  0  0  0  0  0  0  0  0
   16.9990   12.0620   29.6490 C   0  0  0  0  0  0  0  0  0  0  0  0
   22.6200   10.4390   31.1670 C   0  0  0  0  0  0  0  0  0  0  0  0
   21.6750    8.3440   30.3890 C   0  0  0  0  0  0  0  0  0  0  0  0
   20.1140   11.6750   30.9430 C   0  0  0  0  0  0  0  0  0  0  0  0
   17.7490   11.8050   30.7970 C   0  0  0  0  0  0  0  0  0  0  0  0
   23.7380   12.5480   31.8820 C   0  0  0  0  0  0  0  0  0  0  0  0
   17.9730   10.7330   32.8850 F   0  0  0  0  0  0  0  0  0  0  0  0
   18.9730   12.4710   30.9490 O   0  0  0  0  0  0  0  0  0  0  0  0
   22.8520    7.7200   30.5390 N   0  0  0  0  0  0  0  0  0  0  0  0
   21.2610   13.7320   31.4420 O   0  0  0  0  0  0  0  0  0  0  0  0
   22.5190   11.8120   31.4410 N   0  0  0  0  0  0  0  0  0  0  0  0
   23.8410    9.8340   31.3260 N   0  0  0  0  0  0  0  0  0  0  0  0
   25.0840    7.8120   31.3580 N   0  0  0  0  0  0  0  0  0  0  0  0
   15.1150   11.7230   28.6630 H   0  0  0  0  0  0  0  0  0  0  0  0
   17.4120   12.6470   28.8240 H   0  0  0  0  0  0  0  0  0  0  0  0
   15.5100    9.8930   32.5540 H   0  0  0  0  0  0  0  0  0  0  0  0
   19.3340    9.7590   30.3530 H   0  0  0  0  0  0  0  0  0  0  0  0
   20.8410    7.7540   29.9780 H   0  0  0  0  0  0  0  0  0  0  0  0
   27.2740    8.0500   29.7980 H   0  0  0  0  0  0  0  0  0  0  0  0
   26.5510    9.7080   29.8770 H   0  0  0  0  0  0  0  0  0  0  0  0
   28.3570   10.5040   31.3760 H   0  0  0  0  0  0  0  0  0  0  0  0
   29.1570    9.6410   29.9620 H   0  0  0  0  0  0  0  0  0  0  0  0
   29.2600    7.5220   33.3530 H   0  0  0  0  0  0  0  0  0  0  0  0
   28.4000    9.1420   33.5320 H   0  0  0  0  0  0  0  0  0  0  0  0
   26.6760    7.3250   33.5220 H   0  0  0  0  0  0  0  0  0  0  0  0
   27.3850    6.6170   32.0170 H   0  0  0  0  0  0  0  0  0  0  0  0
   26.0880    9.4390   32.3190 H   0  0  0  0  0  0  0  0  0  0  0  0
   24.4960   12.5670   31.0520 H   0  0  0  0  0  0  0  0  0  0  0  0
   24.1990   12.0300   32.7670 H   0  0  0  0  0  0  0  0  0  0  0  0
   23.4760   13.5990   32.1670 H   0  0  0  0  0  0  0  0  0  0  0  0
   25.2110    6.8410   31.0030 H   0  0  0  0  0  0  0  0  0  0  0  0
   14.1470   10.3900   30.5200 H   0  0  0  0  0  0  0  0  0  0  0  0
  1  2  1  0  0  0  0
  1 10  1  0  0  0  0
  1 33  1  0  0  0  0
  1 34  1  0  0  0  0
  2  6  1  0  0  0  0
  2 35  1  0  0  0  0
  2 36  1  0  0  0  0
  3  4  1  0  0  0  0
  3  6  1  0  0  0  0
  3 37  1  0  0  0  0
  3 38  1  0  0  0  0
  4 10  1  0  0  0  0
  4 39  1  0  0  0  0
  4 40  1  0  0  0  0
  5  8  1  0  0  0  0
  5 13  2  0  0  0  0
  5 30  1  0  0  0  0
  7 18  1  0  0  0  0
  7 24  2  0  0  0  0
  7 25  1  0  0  0  0
  8 19  2  0  0  0  0
  8 21  1  0  0  0  0
  9 23  1  0  0  0  0
  9 26  2  0  0  0  0
  9 27  1  0  0  0  0
 10 27  1  0  0  0  0
 10 41  1  0  0  0  0
 11 12  1  0  0  0  0
 11 16  2  0  0  0  0
 11 17  1  0  0  0  0
 12 18  2  0  0  0  0
 12 31  1  0  0  0  0
 13 14  1  0  0  0  0
 13 46  1  0  0  0  0
 14 15  2  0  0  0  0
 14 28  1  0  0  0  0
 15 19  1  0  0  0  0
 15 29  1  0  0  0  0
 16 25  1  0  0  0  0
 16 26  1  0  0  0  0
 17 23  2  0  0  0  0
 17 32  1  0  0  0  0
 18 22  1  0  0  0  0
 19 22  1  0  0  0  0
 20 25  1  0  0  0  0
 20 42  1  0  0  0  0
 20 43  1  0  0  0  0
 20 44  1  0  0  0  0
 27 45  1  0  0  0  0
M  END
$$$$
