23484
                    3D
 Schrodinger Suite 2022-3.
 60 63  0  0  1  0  0  0  0  0999 V2000
   43.7670   13.7310   16.3270 S   0  0  0  0  0  0  0  0  0  0  0  0
   43.4980   15.2290   15.4840 C   0  0  0  0  0  0  0  0  0  0  0  0
   42.4020   15.0700   14.6610 C   0  0  0  0  0  0  0  0  0  0  0  0
   41.7950   13.7670   14.7080 C   0  0  0  0  0  0  0  0  0  0  0  0
   42.4230   12.9040   15.5800 C   0  0  0  0  0  0  0  0  0  0  0  0
   44.3510   16.4600   15.7400 C   0  0  0  0  0  0  0  0  0  0  0  0
   45.1060   16.4040   16.7370 O   0  0  0  0  0  0  0  0  0  0  0  0
   44.2530   17.4330   14.9800 O   0  5  0  0  0  0  0  0  0  0  0  0
   42.0410   11.5410   15.8840 C   0  0  0  0  0  0  0  0  0  0  0  0
   40.8280   11.0470   15.3740 C   0  0  0  0  0  0  0  0  0  0  0  0
   40.3630    9.7460   15.6690 C   0  0  0  0  0  0  0  0  0  0  0  0
   41.1530    8.8910   16.4470 C   0  0  0  0  0  0  0  0  0  0  0  0
   42.3730    9.3760   16.9450 C   0  0  0  0  0  0  0  0  0  0  0  0
   42.8200   10.6670   16.6810 C   0  0  0  0  0  0  0  0  0  0  0  0
   42.0530   16.1070   13.8540 O   0  0  0  0  0  0  0  0  0  0  0  0
   40.6470   16.1700   13.4770 C   0  0  0  0  0  0  0  0  0  0  0  0
   40.5990   17.5780   12.7910 C   0  0  0  0  0  0  0  0  0  0  0  0
   39.4580   17.9710   12.4610 O   0  5  0  0  0  0  0  0  0  0  0  0
   41.6730   18.1710   12.6360 O   0  0  0  0  0  0  0  0  0  0  0  0
   39.0220    9.4520   15.2570 N   0  0  0  0  0  0  0  0  0  0  0  0
   38.5630    8.0750   14.9340 C   0  0  0  0  0  0  0  0  0  0  0  0
   37.0230    8.1670   14.7480 C   0  0  0  0  0  0  0  0  0  0  0  0
   36.4270    6.8350   14.2640 C   0  0  0  0  0  0  0  0  0  0  0  0
   37.0850    6.4120   12.9890 N   0  0  1  0  0  0  0  0  0  0  0  0
   38.5500    6.1950   13.2020 C   0  0  0  0  0  0  0  0  0  0  0  0
   39.2070    7.5150   13.6390 C   0  0  0  0  0  0  0  0  0  0  0  0
   36.2370    5.2600   12.0580 S   0  0  0  0  0  0  0  0  0  0  0  0
   37.0890    4.8540   10.9450 O   0  0  0  0  0  0  0  0  0  0  0  0
   35.0140    5.9160   11.5780 O   0  0  0  0  0  0  0  0  0  0  0  0
   35.8910    3.8950   13.1190 C   0  0  0  0  0  0  0  0  0  0  0  0
   35.5040    2.6710   12.3560 C   0  0  0  0  0  0  0  0  0  0  0  0
   36.4730    1.9470   11.6370 C   0  0  0  0  0  0  0  0  0  0  0  0
   36.1040    0.8130   10.9090 C   0  0  0  0  0  0  0  0  0  0  0  0
   34.7760    0.3730   10.9140 C   0  0  0  0  0  0  0  0  0  0  0  0
   33.8190    1.0700   11.6550 C   0  0  0  0  0  0  0  0  0  0  0  0
   34.1760    2.2180   12.3690 C   0  0  0  0  0  0  0  0  0  0  0  0
   40.2110   11.6740   14.7340 H   0  0  0  0  0  0  0  0  0  0  0  0
   40.8390    7.8750   16.6710 H   0  0  0  0  0  0  0  0  0  0  0  0
   42.9770    8.7030   17.5600 H   0  0  0  0  0  0  0  0  0  0  0  0
   43.7800   10.9820   17.0940 H   0  0  0  0  0  0  0  0  0  0  0  0
   40.0050   16.1250   14.3830 H   0  0  0  0  0  0  0  0  0  0  0  0
   40.4040   15.3500   12.7750 H   0  0  0  0  0  0  0  0  0  0  0  0
   38.6840   10.1090   14.5170 H   0  0  0  0  0  0  0  0  0  0  0  0
   38.7920    7.3870   15.7860 H   0  0  0  0  0  0  0  0  0  0  0  0
   36.7810    8.9620   14.0030 H   0  0  0  0  0  0  0  0  0  0  0  0
   36.5530    8.4190   15.7280 H   0  0  0  0  0  0  0  0  0  0  0  0
   35.3300    6.9760   14.0880 H   0  0  0  0  0  0  0  0  0  0  0  0
   36.5730    6.0570   15.0680 H   0  0  0  0  0  0  0  0  0  0  0  0
   39.0190    5.8550   12.2440 H   0  0  0  0  0  0  0  0  0  0  0  0
   38.7270    5.4170   13.9970 H   0  0  0  0  0  0  0  0  0  0  0  0
   40.2890    7.3210   13.8240 H   0  0  0  0  0  0  0  0  0  0  0  0
   39.0830    8.2630   12.8300 H   0  0  0  0  0  0  0  0  0  0  0  0
   35.0920    4.1620   13.8690 H   0  0  0  0  0  0  0  0  0  0  0  0
   36.7900    3.6580   13.7640 H   0  0  0  0  0  0  0  0  0  0  0  0
   37.5220    2.2620   11.6470 H   0  0  0  0  0  0  0  0  0  0  0  0
   36.8540    0.2620   10.3350 H   0  0  0  0  0  0  0  0  0  0  0  0
   34.4840   -0.5090   10.3410 H   0  0  0  0  0  0  0  0  0  0  0  0
   32.7820    0.7220   11.6720 H   0  0  0  0  0  0  0  0  0  0  0  0
   33.4090    2.7490   12.9390 H   0  0  0  0  0  0  0  0  0  0  0  0
   40.9310   13.4840   14.1170 H   0  0  0  0  0  0  0  0  0  0  0  0
  1  2  1  0  0  0  0
  1  5  1  0  0  0  0
  2  3  2  0  0  0  0
  2  6  1  0  0  0  0
  3  4  1  0  0  0  0
  3 15  1  0  0  0  0
  4  5  2  0  0  0  0
  4 60  1  0  0  0  0
  5  9  1  0  0  0  0
  6  7  2  0  0  0  0
  6  8  1  0  0  0  0
  9 10  1  0  0  0  0
  9 14  2  0  0  0  0
 10 11  2  0  0  0  0
 10 37  1  0  0  0  0
 11 12  1  0  0  0  0
 11 20  1  0  0  0  0
 12 13  2  0  0  0  0
 12 38  1  0  0  0  0
 13 14  1  0  0  0  0
 13 39  1  0  0  0  0
 14 40  1  0  0  0  0
 15 16  1  0  0  0  0
 16 17  1  0  0  0  0
 16 41  1  0  0  0  0
 16 42  1  0  0  0  0
 17 18  1  0  0  0  0
 17 19  2  0  0  0  0
 20 21  1  0  0  0  0
 20 43  1  0  0  0  0
 21 22  1  0  0  0  0
 21 26  1  0  0  0  0
 21 44  1  0  0  0  0
 22 23  1  0  0  0  0
 22 45  1  0  0  0  0
 22 46  1  0  0  0  0
 23 24  1  0  0  0  0
 23 47  1  0  0  0  0
 23 48  1  0  0  0  0
 24 25  1  0  0  0  0
 24 27  1  0  0  0  0
 25 26  1  0  0  0  0
 25 49  1  0  0  0  0
 25 50  1  0  0  0  0
 26 51  1  0  0  0  0
 26 52  1  0  0  0  0
 27 28  2  0  0  0  0
 27 29  2  0  0  0  0
 27 30  1  0  0  0  0
 30 31  1  0  0  0  0
 30 53  1  0  0  0  0
 30 54  1  0  0  0  0
 31 32  2  0  0  0  0
 31 36  1  0  0  0  0
 32 33  1  0  0  0  0
 32 55  1  0  0  0  0
 33 34  2  0  0  0  0
 33 56  1  0  0  0  0
 34 35  1  0  0  0  0
 34 57  1  0  0  0  0
 35 36  2  0  0  0  0
 35 58  1  0  0  0  0
 36 59  1  0  0  0  0
M  CHG  2   8  -1  18  -1
M  END
$$$$
