18638-1
 OpenBabel02232411163D
Structure written by MMmdl.
 52 53  0  0  0  0  0  0  0  0999 V2000
   23.2950   10.6160   29.0180 C   0  0  0  0  0  0  0  0  0  0  0  0
   23.5980   10.8860   30.4780 C   0  0  0  0  0  0  0  0  0  0  0  0
   22.3470   11.0150   31.2540 O   0  0  0  0  0  0  0  0  0  0  0  0
   21.6750    9.8980   31.6130 C   0  0  0  0  0  0  0  0  0  0  0  0
   22.1340    8.6880   31.2160 N   0  0  0  0  0  0  0  0  0  0  0  0
   21.3760    7.5780   31.5480 C   0  0  0  0  0  0  0  0  0  0  0  0
   20.2080    7.6610   32.2990 C   0  0  0  0  0  0  0  0  0  0  0  0
   19.7430    8.9330   32.7290 C   0  0  0  0  0  0  0  0  0  0  0  0
   18.5780    9.0160   33.4500 N   0  0  0  0  0  0  0  0  0  0  0  0
   20.4900   10.1040   32.3810 C   0  0  0  0  0  0  0  0  0  0  0  0
   20.1080   11.4180   32.7260 C   0  0  0  0  0  0  0  0  0  0  0  0
   19.8420   12.5190   32.9750 N   0  0  0  0  0  0  0  0  0  0  0  0
   21.9200    6.3840   31.0130 N   0  0  0  0  0  0  0  0  0  0  0  0
   21.2320    5.1570   30.9020 C   0  0  0  0  0  0  0  0  0  0  0  0
   20.1460    4.9660   31.4080 O   0  0  0  0  0  0  0  0  0  0  0  0
   21.9240    4.1340   30.0160 C   0  0  0  0  0  0  0  0  0  0  0  0
   23.3010    3.7190   30.4410 C   0  0  0  0  0  0  0  0  0  0  0  0
   24.4430    4.4350   29.9800 C   0  0  0  0  0  0  0  0  0  0  0  0
   24.1120    5.5680   29.2430 O   0  0  0  0  0  0  0  0  0  0  0  0
   25.1400    6.5880   29.1020 C   0  0  0  0  0  0  0  0  0  0  0  0
   25.7350    3.9700   30.2070 C   0  0  0  0  0  0  0  0  0  0  0  0
   25.9470    2.8000   30.9570 C   0  0  0  0  0  0  0  0  0  0  0  0
   27.5910    2.1990   31.0970 S   0  0  0  0  0  0  0  0  0  0  0  0
   28.5590    3.3120   30.9380 O   0  0  0  0  0  0  0  0  0  0  0  0
   27.7660    1.5380   32.4110 O   0  0  0  0  0  0  0  0  0  0  0  0
   27.7300    1.0660   29.7900 C   0  0  0  0  0  0  0  0  0  0  0  0
   24.8270    2.1420   31.4870 C   0  0  0  0  0  0  0  0  0  0  0  0
   23.5090    2.5840   31.2100 C   0  0  0  0  0  0  0  0  0  0  0  0
   25.1060    1.0750   32.3050 O   0  0  0  0  0  0  0  0  0  0  0  0
   24.0330    0.1330   32.5900 C   0  0  0  0  0  0  0  0  0  0  0  0
   22.8810    9.5900   28.8740 H   0  0  0  0  0  0  0  0  0  0  0  0
   22.5670   11.3540   28.6120 H   0  0  0  0  0  0  0  0  0  0  0  0
   24.2400   10.6970   28.4260 H   0  0  0  0  0  0  0  0  0  0  0  0
   24.0140   11.9100   30.6400 H   0  0  0  0  0  0  0  0  0  0  0  0
   24.2370   10.0940   30.9290 H   0  0  0  0  0  0  0  0  0  0  0  0
   19.6290    6.7680   32.5460 H   0  0  0  0  0  0  0  0  0  0  0  0
   18.0640    8.1610   33.7340 H   0  0  0  0  0  0  0  0  0  0  0  0
   18.1970    9.9150   33.7450 H   0  0  0  0  0  0  0  0  0  0  0  0
   22.8370    6.4810   30.5170 H   0  0  0  0  0  0  0  0  0  0  0  0
   21.2740    3.2210   29.9590 H   0  0  0  0  0  0  0  0  0  0  0  0
   21.9880    4.5890   28.9860 H   0  0  0  0  0  0  0  0  0  0  0  0
   24.5420    7.4590   28.7490 H   0  0  0  0  0  0  0  0  0  0  0  0
   25.6190    6.8010   30.0820 H   0  0  0  0  0  0  0  0  0  0  0  0
   25.8750    6.2560   28.3390 H   0  0  0  0  0  0  0  0  0  0  0  0
   26.5860    4.5110   29.7760 H   0  0  0  0  0  0  0  0  0  0  0  0
   27.6230    1.5650   28.7900 H   0  0  0  0  0  0  0  0  0  0  0  0
   28.7190    0.5390   29.7770 H   0  0  0  0  0  0  0  0  0  0  0  0
   26.9410    0.2700   29.8260 H   0  0  0  0  0  0  0  0  0  0  0  0
   22.6550    2.0210   31.5870 H   0  0  0  0  0  0  0  0  0  0  0  0
   23.6160   -0.2590   31.6380 H   0  0  0  0  0  0  0  0  0  0  0  0
   23.2630    0.6050   33.2350 H   0  0  0  0  0  0  0  0  0  0  0  0
   24.5800   -0.6690   33.1430 H   0  0  0  0  0  0  0  0  0  0  0  0
  1  2  1  0  0  0  0
  1 31  1  0  0  0  0
  1 32  1  0  0  0  0
  1 33  1  0  0  0  0
  2  3  1  0  0  0  0
  2 34  1  0  0  0  0
  2 35  1  0  0  0  0
  3  4  1  0  0  0  0
  4 10  2  0  0  0  0
  4  5  1  0  0  0  0
  5  6  2  0  0  0  0
  6  7  1  0  0  0  0
  6 13  1  0  0  0  0
  7  8  2  0  0  0  0
  7 36  1  0  0  0  0
  8  9  1  0  0  0  0
  8 10  1  0  0  0  0
  9 37  1  0  0  0  0
  9 38  1  0  0  0  0
 10 11  1  0  0  0  0
 11 12  3  0  0  0  0
 13 14  1  0  0  0  0
 13 39  1  0  0  0  0
 14 15  2  0  0  0  0
 14 16  1  0  0  0  0
 16 17  1  0  0  0  0
 16 40  1  0  0  0  0
 16 41  1  0  0  0  0
 17 28  2  0  0  0  0
 17 18  1  0  0  0  0
 18 19  1  0  0  0  0
 18 21  2  0  0  0  0
 19 20  1  0  0  0  0
 20 42  1  0  0  0  0
 20 43  1  0  0  0  0
 20 44  1  0  0  0  0
 21 22  1  0  0  0  0
 21 45  1  0  0  0  0
 22 23  1  0  0  0  0
 22 27  2  0  0  0  0
 23 24  2  0  0  0  0
 23 25  2  0  0  0  0
 23 26  1  0  0  0  0
 26 46  1  0  0  0  0
 26 47  1  0  0  0  0
 26 48  1  0  0  0  0
 27 28  1  0  0  0  0
 27 29  1  0  0  0  0
 28 49  1  0  0  0  0
 29 30  1  0  0  0  0
 30 50  1  0  0  0  0
 30 51  1  0  0  0  0
 30 52  1  0  0  0  0
M  END
$$$$
