p38a_2p
 OpenBabel02232411163D
Structure written by MMmdl.
 58 61  0  0  0  0  0  0  0  0999 V2000
   38.2550   36.4990   17.2290 C   0  0  0  0  0  0  0  0  0  0  0  0
   34.4810   35.1730   21.3560 C   0  0  0  0  0  0  0  0  0  0  0  0
   37.4850   36.0690   18.3060 C   0  0  0  0  0  0  0  0  0  0  0  0
   33.9800   39.3260   23.7860 C   0  0  0  0  0  0  0  0  0  0  0  0
   34.6350   38.0510   21.4310 C   0  0  0  0  0  0  0  0  0  0  0  0
   35.0570   37.3540   20.2470 C   0  0  0  0  0  0  0  0  0  0  0  0
   37.5920   36.6310   16.0020 C   0  0  0  0  0  0  0  0  0  0  0  0
   36.2400   36.3270   15.8210 C   0  0  0  0  0  0  0  0  0  0  0  0
   35.4910   35.8860   16.9170 C   0  0  0  0  0  0  0  0  0  0  0  0
   34.2220   37.3170   22.5810 C   0  0  0  0  0  0  0  0  0  0  0  0
   34.6220   39.4680   21.5370 C   0  0  0  0  0  0  0  0  0  0  0  0
   35.0160   36.0020   20.2390 C   0  0  0  0  0  0  0  0  0  0  0  0
   36.1190   35.7480   18.1580 C   0  0  0  0  0  0  0  0  0  0  0  0
   38.0360   35.9560   19.5080 F   0  0  0  0  0  0  0  0  0  0  0  0
   35.4130   35.1490   19.2110 O   0  0  0  0  0  0  0  0  0  0  0  0
   34.3120   40.1170   22.6700 N   0  0  0  0  0  0  0  0  0  0  0  0
   34.3180   33.9730   21.3220 O   0  0  0  0  0  0  0  0  0  0  0  0
   34.1200   35.9150   22.5360 N   0  0  0  0  0  0  0  0  0  0  0  0
   33.9050   37.9490   23.7560 N   0  0  0  0  0  0  0  0  0  0  0  0
   33.6370   39.9740   24.9560 N   0  0  0  0  0  0  0  0  0  0  0  0
   39.3120   36.7590   17.3440 H   0  0  0  0  0  0  0  0  0  0  0  0
   35.4070   37.9450   19.3980 H   0  0  0  0  0  0  0  0  0  0  0  0
   35.7590   36.4440   14.8470 H   0  0  0  0  0  0  0  0  0  0  0  0
   34.4240   35.6690   16.7980 H   0  0  0  0  0  0  0  0  0  0  0  0
   34.8730   40.0820   20.6570 H   0  0  0  0  0  0  0  0  0  0  0  0
   33.8100   40.9950   25.0400 H   0  0  0  0  0  0  0  0  0  0  0  0
   38.2780   37.1070   14.9660 F   0  0  0  0  0  0  0  0  0  0  0  0
   32.5660   39.3340   28.5650 C   0  0  0  0  0  0  0  0  0  0  0  0
   32.5640   39.9730   27.1710 C   0  0  0  0  0  0  0  0  0  0  0  0
   33.5660   39.2400   26.2560 C   0  0  0  0  0  0  0  0  0  0  0  0
   34.9620   39.1810   26.9180 C   0  0  0  0  0  0  0  0  0  0  0  0
   34.8510   38.5990   28.3330 C   0  0  0  0  0  0  0  0  0  0  0  0
   33.8940   39.3220   29.1390 O   0  0  0  0  0  0  0  0  0  0  0  0
   32.1780   38.2900   28.5270 H   0  0  0  0  0  0  0  0  0  0  0  0
   32.0010   39.9590   29.2950 H   0  0  0  0  0  0  0  0  0  0  0  0
   32.8490   41.0480   27.2590 H   0  0  0  0  0  0  0  0  0  0  0  0
   31.5420   39.9120   26.7260 H   0  0  0  0  0  0  0  0  0  0  0  0
   33.1990   38.1940   26.0650 H   0  0  0  0  0  0  0  0  0  0  0  0
   35.6380   38.5340   26.3110 H   0  0  0  0  0  0  0  0  0  0  0  0
   35.3980   40.2080   26.9680 H   0  0  0  0  0  0  0  0  0  0  0  0
   34.5560   37.5240   28.2970 H   0  0  0  0  0  0  0  0  0  0  0  0
   35.7990   38.7420   28.9010 H   0  0  0  0  0  0  0  0  0  0  0  0
   33.5550   35.1880   23.7230 C   0  0  0  0  0  0  0  0  0  0  0  0
   32.6660   35.7740   24.0890 H   0  0  0  0  0  0  0  0  0  0  0  0
   33.2160   34.1710   23.3830 H   0  0  0  0  0  0  0  0  0  0  0  0
   34.5810   35.0410   24.8660 C   0  0  0  0  0  0  0  0  0  0  0  0
   35.2400   34.1580   24.6890 H   0  0  0  0  0  0  0  0  0  0  0  0
   35.2410   35.9510   24.8940 H   0  0  0  0  0  0  0  0  0  0  0  0
   33.9060   34.9410   26.2420 C   0  0  0  0  0  0  0  0  0  0  0  0
   33.2510   35.8450   26.3860 H   0  0  0  0  0  0  0  0  0  0  0  0
   34.7120   35.0280   27.0270 H   0  0  0  0  0  0  0  0  0  0  0  0
   32.9810   33.4760   26.5430 S   0  0  0  0  0  0  0  0  0  0  0  0
   32.1710   33.0910   25.3660 O   0  0  0  0  0  0  0  0  0  0  0  0
   32.1100   33.6380   27.7370 O   0  0  0  0  0  0  0  0  0  0  0  0
   34.1890   32.2640   26.8640 C   0  0  0  0  0  0  0  0  0  0  0  0
   34.8190   32.5500   27.7470 H   0  0  0  0  0  0  0  0  0  0  0  0
   33.7330   31.2670   27.1030 H   0  0  0  0  0  0  0  0  0  0  0  0
   34.8730   32.0990   25.9970 H   0  0  0  0  0  0  0  0  0  0  0  0
  1  3  2  0  0  0  0
  1  7  1  0  0  0  0
  1 21  1  0  0  0  0
  2 12  1  0  0  0  0
  2 17  2  0  0  0  0
  2 18  1  0  0  0  0
  3 13  1  0  0  0  0
  3 14  1  0  0  0  0
  4 16  2  0  0  0  0
  4 19  1  0  0  0  0
  4 20  1  0  0  0  0
  5  6  1  0  0  0  0
  5 10  1  0  0  0  0
  5 11  2  0  0  0  0
  6 12  2  0  0  0  0
  6 22  1  0  0  0  0
  7  8  2  0  0  0  0
  7 27  1  0  0  0  0
  8  9  1  0  0  0  0
  8 23  1  0  0  0  0
  9 13  2  0  0  0  0
  9 24  1  0  0  0  0
 10 18  1  0  0  0  0
 10 19  2  0  0  0  0
 11 16  1  0  0  0  0
 11 25  1  0  0  0  0
 12 15  1  0  0  0  0
 13 15  1  0  0  0  0
 18 43  1  0  0  0  0
 20 26  1  0  0  0  0
 20 30  1  0  0  0  0
 28 29  1  0  0  0  0
 28 33  1  0  0  0  0
 28 34  1  0  0  0  0
 28 35  1  0  0  0  0
 29 30  1  0  0  0  0
 29 36  1  0  0  0  0
 29 37  1  0  0  0  0
 30 31  1  0  0  0  0
 30 38  1  0  0  0  0
 31 32  1  0  0  0  0
 31 39  1  0  0  0  0
 31 40  1  0  0  0  0
 32 33  1  0  0  0  0
 32 41  1  0  0  0  0
 32 42  1  0  0  0  0
 43 44  1  0  0  0  0
 43 45  1  0  0  0  0
 43 46  1  0  0  0  0
 46 47  1  0  0  0  0
 46 48  1  0  0  0  0
 46 49  1  0  0  0  0
 49 50  1  0  0  0  0
 49 51  1  0  0  0  0
 49 52  1  0  0  0  0
 52 53  2  0  0  0  0
 52 54  2  0  0  0  0
 52 55  1  0  0  0  0
 55 56  1  0  0  0  0
 55 57  1  0  0  0  0
 55 58  1  0  0  0  0
M  END
$$$$
