CAT-13e
 OpenBabel02232411143D
Structure written by MMmdl.
 46 49  0  0  1  0  0  0  0  0999 V2000
   11.5720   -2.6040    1.3680 C   0  0  0  0  0  0  0  0  0  0  0  0
   12.8490   -2.4230    0.6450 N   0  0  0  0  0  0  0  0  0  0  0  0
   14.0870   -2.3000    1.2690 C   0  0  0  0  0  0  0  0  0  0  0  0
   14.3260   -2.3490    2.6080 N   0  0  0  0  0  0  0  0  0  0  0  0
   15.0990   -2.1470    0.3030 N   0  3  0  0  0  0  0  0  0  0  0  0
   14.5640   -2.5450   -1.0590 C   0  0  1  0  0  0  0  0  0  0  0  0
   14.8860   -1.4970   -2.1120 C   0  0  0  0  0  0  0  0  0  0  0  0
   15.1490   -1.8730   -3.4380 C   0  0  0  0  0  0  0  0  0  0  0  0
   15.4200   -0.8960   -4.3990 C   0  0  0  0  0  0  0  0  0  0  0  0
   15.4020    0.4580   -4.0610 C   0  0  0  0  0  0  0  0  0  0  0  0
   15.1050    0.8470   -2.7440 C   0  0  0  0  0  0  0  0  0  0  0  0
   15.0050    2.2760   -2.3770 C   0  0  0  0  0  0  0  0  0  0  0  0
   15.5780    2.7470   -1.1860 C   0  0  0  0  0  0  0  0  0  0  0  0
   15.3860    4.0710   -0.7820 C   0  0  0  0  0  0  0  0  0  0  0  0
   14.6470    4.9500   -1.5770 C   0  0  0  0  0  0  0  0  0  0  0  0
   14.1270    4.4820   -2.7880 C   0  0  0  0  0  0  0  0  0  0  0  0
   13.2450    5.5630   -3.7890 Cl  0  0  0  0  0  0  0  0  0  0  0  0
   14.2860    3.1590   -3.2010 C   0  0  0  0  0  0  0  0  0  0  0  0
   14.8630   -0.1380   -1.7720 C   0  0  0  0  0  0  0  0  0  0  0  0
   15.0030   -3.9670   -1.4420 C   0  0  0  0  0  0  0  0  0  0  0  0
   16.5240   -4.0920   -1.7230 C   0  0  0  0  0  0  0  0  0  0  0  0
   16.6400   -5.1300   -0.5870 C   0  0  0  0  0  0  0  0  0  0  0  0
   15.1240   -5.0170   -0.3030 C   0  0  0  0  0  0  0  0  0  0  0  0
   13.0220   -2.5480   -0.8180 C   0  0  0  0  0  0  0  0  0  0  0  0
   12.0930   -2.6080   -1.5560 O   0  0  0  0  0  0  0  0  0  0  0  0
   10.9840   -3.4270    0.8780 H   0  0  0  0  0  0  0  0  0  0  0  0
   10.9860   -1.6470    1.3360 H   0  0  0  0  0  0  0  0  0  0  0  0
   11.7550   -2.8930    2.4370 H   0  0  0  0  0  0  0  0  0  0  0  0
   13.6290   -2.0180    3.3190 H   0  0  0  0  0  0  0  0  0  0  0  0
   16.0700   -2.4510    0.5980 H   0  0  0  0  0  0  0  0  0  0  0  0
   15.1550   -2.9230   -3.7390 H   0  0  0  0  0  0  0  0  0  0  0  0
   15.6540   -1.1990   -5.4250 H   0  0  0  0  0  0  0  0  0  0  0  0
   15.6280    1.2080   -4.8270 H   0  0  0  0  0  0  0  0  0  0  0  0
   16.1560    2.0680   -0.5540 H   0  0  0  0  0  0  0  0  0  0  0  0
   15.8040    4.4030    0.1720 H   0  0  0  0  0  0  0  0  0  0  0  0
   14.4610    5.9740   -1.2450 H   0  0  0  0  0  0  0  0  0  0  0  0
   13.8480    2.8090   -4.1420 H   0  0  0  0  0  0  0  0  0  0  0  0
   14.6650    0.1510   -0.7400 H   0  0  0  0  0  0  0  0  0  0  0  0
   14.3720   -4.3450   -2.2750 H   0  0  0  0  0  0  0  0  0  0  0  0
   17.0960   -3.1650   -1.5230 H   0  0  0  0  0  0  0  0  0  0  0  0
   16.7650   -4.4750   -2.7220 H   0  0  0  0  0  0  0  0  0  0  0  0
   16.9760   -6.1310   -0.8790 H   0  0  0  0  0  0  0  0  0  0  0  0
   17.2740   -4.7400    0.2180 H   0  0  0  0  0  0  0  0  0  0  0  0
   14.8860   -4.6620    0.7130 H   0  0  0  0  0  0  0  0  0  0  0  0
   14.5500   -5.9400   -0.5090 H   0  0  0  0  0  0  0  0  0  0  0  0
   15.3220   -2.2960    2.9610 H   0  0  0  0  0  0  0  0  0  0  0  0
  1  2  1  0  0  0  0
  1 26  1  0  0  0  0
  1 27  1  0  0  0  0
  1 28  1  0  0  0  0
  2  3  1  0  0  0  0
  2 24  1  0  0  0  0
  3  4  1  0  0  0  0
  3  5  2  0  0  0  0
  4 29  1  0  0  0  0
  4 46  1  0  0  0  0
  5  6  1  0  0  0  0
  5 30  1  0  0  0  0
  6  7  1  6  0  0  0
  6 20  1  0  0  0  0
  6 24  1  0  0  0  0
  7  8  2  0  0  0  0
  7 19  1  0  0  0  0
  8  9  1  0  0  0  0
  8 31  1  0  0  0  0
  9 10  2  0  0  0  0
  9 32  1  0  0  0  0
 10 11  1  0  0  0  0
 10 33  1  0  0  0  0
 11 12  1  0  0  0  0
 11 19  2  0  0  0  0
 12 13  2  0  0  0  0
 12 18  1  0  0  0  0
 13 14  1  0  0  0  0
 13 34  1  0  0  0  0
 14 15  2  0  0  0  0
 14 35  1  0  0  0  0
 15 16  1  0  0  0  0
 15 36  1  0  0  0  0
 16 17  1  0  0  0  0
 16 18  2  0  0  0  0
 18 37  1  0  0  0  0
 19 38  1  0  0  0  0
 20 21  1  0  0  0  0
 20 23  1  0  0  0  0
 20 39  1  0  0  0  0
 21 22  1  0  0  0  0
 21 40  1  0  0  0  0
 21 41  1  0  0  0  0
 22 23  1  0  0  0  0
 22 42  1  0  0  0  0
 22 43  1  0  0  0  0
 23 44  1  0  0  0  0
 23 45  1  0  0  0  0
 24 25  2  0  0  0  0
M  CHG  1   5   1
M  END
$$$$
