CAT-13b
                    3D
 Schrodinger Suite 2022-3.
 42 44  0  0  1  0  0  0  0  0999 V2000
   14.5820   -5.0720   -2.5480 C   0  0  0  0  0  0  0  0  0  0  0  0
   15.3310   -4.5140   -1.3400 C   0  0  0  0  0  0  0  0  0  0  0  0
   14.9340   -3.0740   -0.9630 C   0  0  2  0  0  0  0  0  0  0  0  0
   15.4240   -1.9420   -1.8480 C   0  0  0  0  0  0  0  0  0  0  0  0
   16.1760   -2.1620   -3.0060 C   0  0  0  0  0  0  0  0  0  0  0  0
   16.5510   -1.0770   -3.8090 C   0  0  0  0  0  0  0  0  0  0  0  0
   16.2080    0.2270   -3.4550 C   0  0  0  0  0  0  0  0  0  0  0  0
   15.4860    0.4640   -2.2710 C   0  0  0  0  0  0  0  0  0  0  0  0
   15.1710    1.8410   -1.8270 C   0  0  0  0  0  0  0  0  0  0  0  0
   14.5500    2.7600   -2.6850 C   0  0  0  0  0  0  0  0  0  0  0  0
   14.2780    4.0610   -2.2460 C   0  0  0  0  0  0  0  0  0  0  0  0
   14.5950    4.4530   -0.9410 C   0  0  0  0  0  0  0  0  0  0  0  0
   15.1820    3.5160   -0.0880 C   0  0  0  0  0  0  0  0  0  0  0  0
   15.4890    3.9320    1.5550 Cl  0  0  0  0  0  0  0  0  0  0  0  0
   15.4930    2.2240   -0.5140 C   0  0  0  0  0  0  0  0  0  0  0  0
   15.0830   -0.6250   -1.4880 C   0  0  0  0  0  0  0  0  0  0  0  0
   15.3880   -2.7980    0.4580 N   0  3  0  0  0  0  0  0  0  0  0  0
   14.3140   -2.7100    1.3310 C   0  0  0  0  0  0  0  0  0  0  0  0
   14.4250   -2.6450    2.6910 N   0  0  0  0  0  0  0  0  0  0  0  0
   13.1150   -2.7890    0.6160 N   0  0  0  0  0  0  0  0  0  0  0  0
   11.8250   -2.4490    1.2500 C   0  0  0  0  0  0  0  0  0  0  0  0
   13.3790   -2.9590   -0.8270 C   0  0  0  0  0  0  0  0  0  0  0  0
   12.4970   -2.9760   -1.6240 O   0  0  0  0  0  0  0  0  0  0  0  0
   14.5150   -4.3320   -3.3780 H   0  0  0  0  0  0  0  0  0  0  0  0
   15.1260   -5.9720   -2.9300 H   0  0  0  0  0  0  0  0  0  0  0  0
   13.5520   -5.3870   -2.2670 H   0  0  0  0  0  0  0  0  0  0  0  0
   16.4380   -4.5300   -1.5280 H   0  0  0  0  0  0  0  0  0  0  0  0
   15.1390   -5.1840   -0.4600 H   0  0  0  0  0  0  0  0  0  0  0  0
   16.4810   -3.1680   -3.2970 H   0  0  0  0  0  0  0  0  0  0  0  0
   17.1310   -1.2620   -4.7200 H   0  0  0  0  0  0  0  0  0  0  0  0
   16.5090    1.0630   -4.0950 H   0  0  0  0  0  0  0  0  0  0  0  0
   14.2640    2.4550   -3.6950 H   0  0  0  0  0  0  0  0  0  0  0  0
   13.8010    4.7730   -2.9300 H   0  0  0  0  0  0  0  0  0  0  0  0
   14.3740    5.4660   -0.5970 H   0  0  0  0  0  0  0  0  0  0  0  0
   15.9660    1.5070    0.1570 H   0  0  0  0  0  0  0  0  0  0  0  0
   14.5070   -0.4520   -0.5820 H   0  0  0  0  0  0  0  0  0  0  0  0
   16.3450   -3.0480    0.8080 H   0  0  0  0  0  0  0  0  0  0  0  0
   13.6870   -2.1780    3.2730 H   0  0  0  0  0  0  0  0  0  0  0  0
   11.6930   -3.0510    2.1910 H   0  0  0  0  0  0  0  0  0  0  0  0
   11.8190   -1.3560    1.5070 H   0  0  0  0  0  0  0  0  0  0  0  0
   10.9840   -2.6850    0.5460 H   0  0  0  0  0  0  0  0  0  0  0  0
   15.3900   -2.5430    3.1080 H   0  0  0  0  0  0  0  0  0  0  0  0
  1  2  1  0  0  0  0
  1 24  1  0  0  0  0
  1 25  1  0  0  0  0
  1 26  1  0  0  0  0
  2  3  1  0  0  0  0
  2 27  1  0  0  0  0
  2 28  1  0  0  0  0
  3  4  1  0  0  0  0
  3 17  1  0  0  0  0
  3 22  1  0  0  0  0
  4  5  2  0  0  0  0
  4 16  1  0  0  0  0
  5  6  1  0  0  0  0
  5 29  1  0  0  0  0
  6  7  2  0  0  0  0
  6 30  1  0  0  0  0
  7  8  1  0  0  0  0
  7 31  1  0  0  0  0
  8  9  1  0  0  0  0
  8 16  2  0  0  0  0
  9 10  2  0  0  0  0
  9 15  1  0  0  0  0
 10 11  1  0  0  0  0
 10 32  1  0  0  0  0
 11 12  2  0  0  0  0
 11 33  1  0  0  0  0
 12 13  1  0  0  0  0
 12 34  1  0  0  0  0
 13 14  1  0  0  0  0
 13 15  2  0  0  0  0
 15 35  1  0  0  0  0
 16 36  1  0  0  0  0
 17 18  2  0  0  0  0
 17 37  1  0  0  0  0
 18 19  1  0  0  0  0
 18 20  1  0  0  0  0
 19 38  1  0  0  0  0
 19 42  1  0  0  0  0
 20 21  1  0  0  0  0
 20 22  1  0  0  0  0
 21 39  1  0  0  0  0
 21 40  1  0  0  0  0
 21 41  1  0  0  0  0
 22 23  2  0  0  0  0
M  CHG  1  17   1
M  END
$$$$
