30
 OpenBabel02232411153D
Structure written by MMmdl.
 51 54  0  0  0  0  0  0  0  0999 V2000
    1.9250   28.8200    6.7860 C   0  0  0  0  0  0  0  0  0  0  0  0
   -1.5420   31.4350    7.9440 C   0  0  0  0  0  0  0  0  0  0  0  0
   -0.0510   25.9680    8.9240 C   0  0  0  0  0  0  0  0  0  0  0  0
   -0.8500   25.2710   10.0330 C   0  0  0  0  0  0  0  0  0  0  0  0
   -0.6550   23.7480    9.8510 C   0  0  0  0  0  0  0  0  0  0  0  0
   -1.3160   22.9580   10.9880 C   0  0  0  0  0  0  0  0  0  0  0  0
   -0.8170   23.4280   12.3630 C   0  0  0  0  0  0  0  0  0  0  0  0
   -1.0430   24.9370   12.5490 C   0  0  0  0  0  0  0  0  0  0  0  0
   -0.3810   25.7430   11.4230 C   0  0  0  0  0  0  0  0  0  0  0  0
    4.4990   25.2030    7.5820 C   0  0  0  0  0  0  0  0  0  0  0  0
    5.3830   24.8490    6.5520 C   0  0  0  0  0  0  0  0  0  0  0  0
    5.5360   25.7220    5.4680 C   0  0  0  0  0  0  0  0  0  0  0  0
    4.7900   26.8940    5.3880 C   0  0  0  0  0  0  0  0  0  0  0  0
    1.2200   27.8760    7.5210 N   0  0  0  0  0  0  0  0  0  0  0  0
    0.0210   28.2100    8.0680 C   0  0  0  0  0  0  0  0  0  0  0  0
   -0.6630   27.3160    8.7970 O   0  0  0  0  0  0  0  0  0  0  0  0
   -0.5040   29.5170    7.8850 C   0  0  0  0  0  0  0  0  0  0  0  0
   -1.6500   30.1690    8.3560 N   0  0  0  0  0  0  0  0  0  0  0  0
   -0.3300   31.6650    7.2020 N   0  0  0  0  0  0  0  0  0  0  0  0
    0.3280   30.4420    7.1330 C   0  0  0  0  0  0  0  0  0  0  0  0
    1.5250   30.1220    6.5390 N   0  0  0  0  0  0  0  0  0  0  0  0
    3.1410   28.4320    6.2210 N   0  0  0  0  0  0  0  0  0  0  0  0
    3.8650   27.2210    6.4070 C   0  0  0  0  0  0  0  0  0  0  0  0
    3.7530   26.3800    7.5290 C   0  0  0  0  0  0  0  0  0  0  0  0
   -2.2440   32.2420    8.1350 H   0  0  0  0  0  0  0  0  0  0  0  0
    1.0210   26.0780    9.2000 H   0  0  0  0  0  0  0  0  0  0  0  0
   -0.1800   25.4830    7.9360 H   0  0  0  0  0  0  0  0  0  0  0  0
   -1.9350   25.5130    9.9290 H   0  0  0  0  0  0  0  0  0  0  0  0
   -1.0970   23.4320    8.8810 H   0  0  0  0  0  0  0  0  0  0  0  0
    0.4390   23.5140    9.8380 H   0  0  0  0  0  0  0  0  0  0  0  0
   -2.4180   23.0970   10.9380 H   0  0  0  0  0  0  0  0  0  0  0  0
   -1.0840   21.8740   10.8680 H   0  0  0  0  0  0  0  0  0  0  0  0
   -1.3550   22.8700   13.1630 H   0  0  0  0  0  0  0  0  0  0  0  0
    0.2730   23.2100   12.4440 H   0  0  0  0  0  0  0  0  0  0  0  0
   -2.1360   25.1480   12.5770 H   0  0  0  0  0  0  0  0  0  0  0  0
   -0.6010   25.2540   13.5220 H   0  0  0  0  0  0  0  0  0  0  0  0
    0.7260   25.6190   11.5070 H   0  0  0  0  0  0  0  0  0  0  0  0
   -0.6240   26.8220   11.5490 H   0  0  0  0  0  0  0  0  0  0  0  0
    4.3610   24.5560    8.4570 H   0  0  0  0  0  0  0  0  0  0  0  0
    6.2380   25.5040    4.6520 H   0  0  0  0  0  0  0  0  0  0  0  0
    4.9220   27.5540    4.5300 H   0  0  0  0  0  0  0  0  0  0  0  0
   -0.0670   32.5470    6.7380 H   0  0  0  0  0  0  0  0  0  0  0  0
    3.6090   29.1170    5.5740 H   0  0  0  0  0  0  0  0  0  0  0  0
    3.0810   26.6220    8.3540 H   0  0  0  0  0  0  0  0  0  0  0  0
    6.3090   23.3860    6.6110 S   0  0  0  0  0  0  0  0  0  0  0  0
    6.6390   22.9370    5.2380 O   0  0  0  0  0  0  0  0  0  0  0  0
    7.5150   23.6510    7.4260 O   0  0  0  0  0  0  0  0  0  0  0  0
    5.3110   22.1890    7.3710 C   0  0  0  0  0  0  0  0  0  0  0  0
    5.7810   21.1720    7.3540 H   0  0  0  0  0  0  0  0  0  0  0  0
    5.0790   22.4210    8.4460 H   0  0  0  0  0  0  0  0  0  0  0  0
    4.3140   22.0790    6.8640 H   0  0  0  0  0  0  0  0  0  0  0  0
  1 14  2  0  0  0  0
  1 21  1  0  0  0  0
  1 22  1  0  0  0  0
  2 18  2  0  0  0  0
  2 19  1  0  0  0  0
  2 25  1  0  0  0  0
  3  4  1  0  0  0  0
  3 16  1  0  0  0  0
  3 26  1  0  0  0  0
  3 27  1  0  0  0  0
  4  5  1  0  0  0  0
  4  9  1  0  0  0  0
  4 28  1  0  0  0  0
  5  6  1  0  0  0  0
  5 29  1  0  0  0  0
  5 30  1  0  0  0  0
  6  7  1  0  0  0  0
  6 31  1  0  0  0  0
  6 32  1  0  0  0  0
  7  8  1  0  0  0  0
  7 33  1  0  0  0  0
  7 34  1  0  0  0  0
  8  9  1  0  0  0  0
  8 35  1  0  0  0  0
  8 36  1  0  0  0  0
  9 37  1  0  0  0  0
  9 38  1  0  0  0  0
 10 11  2  0  0  0  0
 10 24  1  0  0  0  0
 10 39  1  0  0  0  0
 11 12  1  0  0  0  0
 11 45  1  0  0  0  0
 12 13  2  0  0  0  0
 12 40  1  0  0  0  0
 13 23  1  0  0  0  0
 13 41  1  0  0  0  0
 14 15  1  0  0  0  0
 15 16  1  0  0  0  0
 15 17  2  0  0  0  0
 17 18  1  0  0  0  0
 17 20  1  0  0  0  0
 19 20  1  0  0  0  0
 19 42  1  0  0  0  0
 20 21  2  0  0  0  0
 22 23  1  0  0  0  0
 22 43  1  0  0  0  0
 23 24  2  0  0  0  0
 24 44  1  0  0  0  0
 45 46  2  0  0  0  0
 45 47  2  0  0  0  0
 45 48  1  0  0  0  0
 48 49  1  0  0  0  0
 48 50  1  0  0  0  0
 48 51  1  0  0  0  0
M  END
$$$$
