p38a_2s
 OpenBabel02232411163D
Structure written by MMmdl.
 54 57  0  0  1  0  0  0  0  0999 V2000
   36.3670   36.0870   15.7380 C   0  0  0  0  0  0  0  0  0  0  0  0
   34.6720   34.9600   21.3140 C   0  0  0  0  0  0  0  0  0  0  0  0
   35.6990   35.6020   16.8570 C   0  0  0  0  0  0  0  0  0  0  0  0
   34.1450   38.9830   23.9400 C   0  0  0  0  0  0  0  0  0  0  0  0
   34.8660   37.8170   21.5450 C   0  0  0  0  0  0  0  0  0  0  0  0
   35.2640   37.1830   20.3150 C   0  0  0  0  0  0  0  0  0  0  0  0
   37.6610   36.5800   15.9470 C   0  0  0  0  0  0  0  0  0  0  0  0
   38.2970   36.5720   17.1920 C   0  0  0  0  0  0  0  0  0  0  0  0
   37.5900   36.1150   18.3100 C   0  0  0  0  0  0  0  0  0  0  0  0
   34.5360   37.0260   22.6840 C   0  0  0  0  0  0  0  0  0  0  0  0
   34.7980   39.2280   21.7000 C   0  0  0  0  0  0  0  0  0  0  0  0
   35.1980   35.8360   20.2290 C   0  0  0  0  0  0  0  0  0  0  0  0
   36.2900   35.6310   18.1370 C   0  0  0  0  0  0  0  0  0  0  0  0
   34.4830   35.0840   16.7470 F   0  0  0  0  0  0  0  0  0  0  0  0
   35.5410   35.0220   19.1520 O   0  0  0  0  0  0  0  0  0  0  0  0
   34.4530   39.8230   22.8510 N   0  0  0  0  0  0  0  0  0  0  0  0
   34.3730   33.7940   21.1970 O   0  0  0  0  0  0  0  0  0  0  0  0
   34.5480   35.6210   22.5910 N   0  0  0  0  0  0  0  0  0  0  0  0
   34.1860   37.6020   23.8810 N   0  0  0  0  0  0  0  0  0  0  0  0
   33.7020   39.5840   25.0950 N   0  0  0  0  0  0  0  0  0  0  0  0
   35.8990   36.1060   14.7520 H   0  0  0  0  0  0  0  0  0  0  0  0
   35.6160   37.8190   19.4990 H   0  0  0  0  0  0  0  0  0  0  0  0
   39.3180   36.9460   17.3040 H   0  0  0  0  0  0  0  0  0  0  0  0
   38.0510   36.1640   19.2990 H   0  0  0  0  0  0  0  0  0  0  0  0
   35.0330   39.8860   20.8450 H   0  0  0  0  0  0  0  0  0  0  0  0
   33.7950   40.6170   25.1920 H   0  0  0  0  0  0  0  0  0  0  0  0
   38.2990   37.1170   14.9090 F   0  0  0  0  0  0  0  0  0  0  0  0
   32.4000   38.9850   28.6350 C   0  0  0  0  0  0  0  0  0  0  0  0
   32.5590   39.6670   27.2700 C   0  0  0  0  0  0  0  0  0  0  0  0
   33.4910   38.8300   26.3680 C   0  0  0  0  0  0  0  0  0  0  0  0
   34.8300   38.5530   27.0860 C   0  0  0  0  0  0  0  0  0  0  0  0
   34.5620   37.9270   28.4610 C   0  0  0  0  0  0  0  0  0  0  0  0
   33.6810   38.7480   29.2610 O   0  0  0  0  0  0  0  0  0  0  0  0
   31.8580   38.0170   28.5380 H   0  0  0  0  0  0  0  0  0  0  0  0
   31.9010   39.6630   29.3660 H   0  0  0  0  0  0  0  0  0  0  0  0
   32.9870   40.6890   27.4140 H   0  0  0  0  0  0  0  0  0  0  0  0
   31.5610   39.7720   26.7830 H   0  0  0  0  0  0  0  0  0  0  0  0
   32.9930   37.8520   26.1230 H   0  0  0  0  0  0  0  0  0  0  0  0
   35.4450   37.8450   26.4790 H   0  0  0  0  0  0  0  0  0  0  0  0
   35.4030   39.5030   27.2040 H   0  0  0  0  0  0  0  0  0  0  0  0
   34.1140   36.9110   28.3530 H   0  0  0  0  0  0  0  0  0  0  0  0
   35.4880   37.9000   29.0790 H   0  0  0  0  0  0  0  0  0  0  0  0
   34.3520   34.7900   23.8150 C   0  0  0  0  0  0  0  0  0  0  0  0
   34.9700   33.8530   23.7160 H   0  0  0  0  0  0  0  0  0  0  0  0
   34.7430   35.3610   24.7080 H   0  0  0  0  0  0  0  0  0  0  0  0
   32.8770   34.3860   24.0500 C   0  0  2  0  0  0  0  0  0  0  0  0
   31.9940   35.5060   24.0370 O   0  0  0  0  0  0  0  0  0  0  0  0
   32.4550   36.3000   24.4130 H   0  0  0  0  0  0  0  0  0  0  0  0
   32.7230   33.6340   25.3980 C   0  0  0  0  0  0  0  0  0  0  0  0
   31.7910   33.9620   25.9180 H   0  0  0  0  0  0  0  0  0  0  0  0
   33.6030   33.7520   26.0720 H   0  0  0  0  0  0  0  0  0  0  0  0
   32.4890   33.7430   23.2210 H   0  0  0  0  0  0  0  0  0  0  0  0
   32.5000   32.2420   25.1230 O   0  0  0  0  0  0  0  0  0  0  0  0
   33.4040   31.8190   24.9230 H   0  0  0  0  0  0  0  0  0  0  0  0
  1  3  2  0  0  0  0
  1  7  1  0  0  0  0
  1 21  1  0  0  0  0
  2 12  1  0  0  0  0
  2 17  2  0  0  0  0
  2 18  1  0  0  0  0
  3 13  1  0  0  0  0
  3 14  1  0  0  0  0
  4 16  2  0  0  0  0
  4 19  1  0  0  0  0
  4 20  1  0  0  0  0
  5  6  1  0  0  0  0
  5 10  1  0  0  0  0
  5 11  2  0  0  0  0
  6 12  2  0  0  0  0
  6 22  1  0  0  0  0
  7  8  2  0  0  0  0
  7 27  1  0  0  0  0
  8  9  1  0  0  0  0
  8 23  1  0  0  0  0
  9 13  2  0  0  0  0
  9 24  1  0  0  0  0
 10 18  1  0  0  0  0
 10 19  2  0  0  0  0
 11 16  1  0  0  0  0
 11 25  1  0  0  0  0
 12 15  1  0  0  0  0
 13 15  1  0  0  0  0
 18 43  1  0  0  0  0
 20 26  1  0  0  0  0
 20 30  1  0  0  0  0
 28 29  1  0  0  0  0
 28 33  1  0  0  0  0
 28 34  1  0  0  0  0
 28 35  1  0  0  0  0
 29 30  1  0  0  0  0
 29 36  1  0  0  0  0
 29 37  1  0  0  0  0
 30 31  1  0  0  0  0
 30 38  1  0  0  0  0
 31 32  1  0  0  0  0
 31 39  1  0  0  0  0
 31 40  1  0  0  0  0
 32 33  1  0  0  0  0
 32 41  1  0  0  0  0
 32 42  1  0  0  0  0
 43 44  1  0  0  0  0
 43 45  1  0  0  0  0
 43 46  1  0  0  0  0
 46 47  1  0  0  0  0
 46 49  1  0  0  0  0
 46 52  1  1  0  0  0
 47 48  1  0  0  0  0
 49 50  1  0  0  0  0
 49 51  1  0  0  0  0
 49 53  1  0  0  0  0
 53 54  1  0  0  0  0
M  END
$$$$
