CAT-17b
                    3D
 Schrodinger Suite 2022-3.
 47 50  0  0  1  0  0  0  0  0999 V2000
   15.0560    4.8720    1.7820 C   0  0  0  0  0  0  0  0  0  0  0  0
   15.6130    3.7010    1.1300 O   0  0  0  0  0  0  0  0  0  0  0  0
   15.2520    3.4390   -0.1690 C   0  0  0  0  0  0  0  0  0  0  0  0
   14.6160    4.3280   -1.0480 C   0  0  0  0  0  0  0  0  0  0  0  0
   14.3130    3.8830   -2.3380 C   0  0  0  0  0  0  0  0  0  0  0  0
   14.6280    2.5840   -2.7460 C   0  0  0  0  0  0  0  0  0  0  0  0
   15.2730    1.7100   -1.8580 C   0  0  0  0  0  0  0  0  0  0  0  0
   15.5980    0.3180   -2.2490 C   0  0  0  0  0  0  0  0  0  0  0  0
   16.4190    0.0380   -3.3550 C   0  0  0  0  0  0  0  0  0  0  0  0
   16.7730   -1.2810   -3.6420 C   0  0  0  0  0  0  0  0  0  0  0  0
   16.3010   -2.3370   -2.8530 C   0  0  0  0  0  0  0  0  0  0  0  0
   15.4450   -2.0680   -1.7800 C   0  0  0  0  0  0  0  0  0  0  0  0
   14.8760   -3.1750   -0.9130 C   0  0  1  0  0  0  0  0  0  0  0  0
   15.1050   -4.5910   -1.4100 C   0  0  0  0  0  0  0  0  0  0  0  0
   16.3160   -5.4050   -0.9750 C   0  0  0  0  0  0  0  0  0  0  0  0
   14.9360   -5.7940   -0.4900 C   0  0  0  0  0  0  0  0  0  0  0  0
   15.3450   -2.9380    0.5030 N   0  3  0  0  0  0  0  0  0  0  0  0
   14.2850   -2.7720    1.3770 C   0  0  0  0  0  0  0  0  0  0  0  0
   14.4110   -2.6780    2.7330 N   0  0  0  0  0  0  0  0  0  0  0  0
   13.0780   -2.8000    0.6670 N   0  0  0  0  0  0  0  0  0  0  0  0
   11.8040   -2.4430    1.3210 C   0  0  0  0  0  0  0  0  0  0  0  0
   13.3230   -2.9910   -0.7710 C   0  0  0  0  0  0  0  0  0  0  0  0
   12.4440   -2.9920   -1.5720 O   0  0  0  0  0  0  0  0  0  0  0  0
   15.1010   -0.7400   -1.4770 C   0  0  0  0  0  0  0  0  0  0  0  0
   15.5950    2.1330   -0.5660 C   0  0  0  0  0  0  0  0  0  0  0  0
   15.3170    4.6550    2.8460 H   0  0  0  0  0  0  0  0  0  0  0  0
   15.5580    5.7820    1.3960 H   0  0  0  0  0  0  0  0  0  0  0  0
   13.9620    4.9040    1.6230 H   0  0  0  0  0  0  0  0  0  0  0  0
   14.3470    5.3410   -0.7540 H   0  0  0  0  0  0  0  0  0  0  0  0
   13.8110    4.5620   -3.0380 H   0  0  0  0  0  0  0  0  0  0  0  0
   14.3610    2.2440   -3.7490 H   0  0  0  0  0  0  0  0  0  0  0  0
   16.7870    0.8530   -3.9870 H   0  0  0  0  0  0  0  0  0  0  0  0
   17.4350   -1.4970   -4.4870 H   0  0  0  0  0  0  0  0  0  0  0  0
   16.6100   -3.3600   -3.0750 H   0  0  0  0  0  0  0  0  0  0  0  0
   14.7620   -4.7020   -2.4570 H   0  0  0  0  0  0  0  0  0  0  0  0
   16.8130   -6.0310   -1.7300 H   0  0  0  0  0  0  0  0  0  0  0  0
   17.0270   -4.9570   -0.2690 H   0  0  0  0  0  0  0  0  0  0  0  0
   14.6700   -5.6310    0.5620 H   0  0  0  0  0  0  0  0  0  0  0  0
   14.4620   -6.6980   -0.9030 H   0  0  0  0  0  0  0  0  0  0  0  0
   16.3060   -3.1770    0.8550 H   0  0  0  0  0  0  0  0  0  0  0  0
   13.6890   -2.1840    3.3130 H   0  0  0  0  0  0  0  0  0  0  0  0
   11.8500   -1.3680    1.6400 H   0  0  0  0  0  0  0  0  0  0  0  0
   11.6430   -3.0920    2.2250 H   0  0  0  0  0  0  0  0  0  0  0  0
   10.9530   -2.5970    0.6060 H   0  0  0  0  0  0  0  0  0  0  0  0
   14.4520   -0.5280   -0.6280 H   0  0  0  0  0  0  0  0  0  0  0  0
   16.0820    1.4610    0.1360 H   0  0  0  0  0  0  0  0  0  0  0  0
   15.3820   -2.5790    3.1370 H   0  0  0  0  0  0  0  0  0  0  0  0
  1  2  1  0  0  0  0
  1 26  1  0  0  0  0
  1 27  1  0  0  0  0
  1 28  1  0  0  0  0
  2  3  1  0  0  0  0
  3  4  2  0  0  0  0
  3 25  1  0  0  0  0
  4  5  1  0  0  0  0
  4 29  1  0  0  0  0
  5  6  2  0  0  0  0
  5 30  1  0  0  0  0
  6  7  1  0  0  0  0
  6 31  1  0  0  0  0
  7  8  1  0  0  0  0
  7 25  2  0  0  0  0
  8  9  2  0  0  0  0
  8 24  1  0  0  0  0
  9 10  1  0  0  0  0
  9 32  1  0  0  0  0
 10 11  2  0  0  0  0
 10 33  1  0  0  0  0
 11 12  1  0  0  0  0
 11 34  1  0  0  0  0
 12 13  1  0  0  0  0
 12 24  2  0  0  0  0
 13 14  1  0  0  0  0
 13 17  1  0  0  0  0
 13 22  1  0  0  0  0
 14 15  1  0  0  0  0
 14 16  1  0  0  0  0
 14 35  1  0  0  0  0
 15 16  1  0  0  0  0
 15 36  1  0  0  0  0
 15 37  1  0  0  0  0
 16 38  1  0  0  0  0
 16 39  1  0  0  0  0
 17 18  2  0  0  0  0
 17 40  1  0  0  0  0
 18 19  1  0  0  0  0
 18 20  1  0  0  0  0
 19 41  1  0  0  0  0
 19 47  1  0  0  0  0
 20 21  1  0  0  0  0
 20 22  1  0  0  0  0
 21 42  1  0  0  0  0
 21 43  1  0  0  0  0
 21 44  1  0  0  0  0
 22 23  2  0  0  0  0
 24 45  1  0  0  0  0
 25 46  1  0  0  0  0
M  CHG  1  17   1
M  END
$$$$
