1h1s
 OpenBabel02232411153D
Structure written by MMmdl.
 50 53  0  0  0  0  0  0  0  0999 V2000
    1.7860   28.9150    6.7760 C   0  0  0  0  0  0  0  0  0  0  0  0
   -1.6520   31.5290    8.0040 C   0  0  0  0  0  0  0  0  0  0  0  0
   -0.1340   26.0530    8.9270 C   0  0  0  0  0  0  0  0  0  0  0  0
   -0.9050   25.3320   10.0390 C   0  0  0  0  0  0  0  0  0  0  0  0
   -0.7260   23.8130    9.8100 C   0  0  0  0  0  0  0  0  0  0  0  0
   -1.3670   22.9980   10.9420 C   0  0  0  0  0  0  0  0  0  0  0  0
   -0.8360   23.4260   12.3190 C   0  0  0  0  0  0  0  0  0  0  0  0
   -1.0410   24.9320   12.5480 C   0  0  0  0  0  0  0  0  0  0  0  0
   -0.3900   25.7570   11.4280 C   0  0  0  0  0  0  0  0  0  0  0  0
    5.3780   25.7170    5.7320 C   0  0  0  0  0  0  0  0  0  0  0  0
    5.1710   24.9390    6.8790 C   0  0  0  0  0  0  0  0  0  0  0  0
    4.2790   25.3990    7.8580 C   0  0  0  0  0  0  0  0  0  0  0  0
    3.5770   26.5880    7.6930 C   0  0  0  0  0  0  0  0  0  0  0  0
    1.0760   27.9620    7.4950 N   0  0  0  0  0  0  0  0  0  0  0  0
   -0.1050   28.2960    8.0780 C   0  0  0  0  0  0  0  0  0  0  0  0
   -0.7670   27.3950    8.8180 O   0  0  0  0  0  0  0  0  0  0  0  0
   -0.6230   29.6080    7.9200 C   0  0  0  0  0  0  0  0  0  0  0  0
   -1.7590   30.2610    8.4110 N   0  0  0  0  0  0  0  0  0  0  0  0
   -0.4490   31.7590    7.2480 N   0  0  0  0  0  0  0  0  0  0  0  0
    0.2050   30.5350    7.1660 C   0  0  0  0  0  0  0  0  0  0  0  0
    1.3960   30.2210    6.5540 N   0  0  0  0  0  0  0  0  0  0  0  0
    2.9980   28.5100    6.2080 N   0  0  0  0  0  0  0  0  0  0  0  0
    3.7240   27.3230    6.5010 C   0  0  0  0  0  0  0  0  0  0  0  0
    4.6640   26.8950    5.5360 C   0  0  0  0  0  0  0  0  0  0  0  0
   -2.3480   32.3360    8.2140 H   0  0  0  0  0  0  0  0  0  0  0  0
    0.9380   26.1790    9.1940 H   0  0  0  0  0  0  0  0  0  0  0  0
   -0.2630   25.5760    7.9340 H   0  0  0  0  0  0  0  0  0  0  0  0
   -1.9900   25.5850    9.9750 H   0  0  0  0  0  0  0  0  0  0  0  0
   -1.1950   23.5260    8.8430 H   0  0  0  0  0  0  0  0  0  0  0  0
    0.3650   23.5720    9.7670 H   0  0  0  0  0  0  0  0  0  0  0  0
   -2.4680   23.1480   10.9200 H   0  0  0  0  0  0  0  0  0  0  0  0
   -1.1470   21.9160   10.7870 H   0  0  0  0  0  0  0  0  0  0  0  0
   -1.3670   22.8540   13.1130 H   0  0  0  0  0  0  0  0  0  0  0  0
    0.2530   23.1920   12.3760 H   0  0  0  0  0  0  0  0  0  0  0  0
   -2.1300   25.1560   12.6020 H   0  0  0  0  0  0  0  0  0  0  0  0
   -0.5770   25.2200   13.5200 H   0  0  0  0  0  0  0  0  0  0  0  0
    0.7160   25.6110   11.4810 H   0  0  0  0  0  0  0  0  0  0  0  0
   -0.6090   26.8370   11.5900 H   0  0  0  0  0  0  0  0  0  0  0  0
    6.0980   25.4170    4.9610 H   0  0  0  0  0  0  0  0  0  0  0  0
    4.0990   24.8320    8.7780 H   0  0  0  0  0  0  0  0  0  0  0  0
    2.9080   26.9230    8.4870 H   0  0  0  0  0  0  0  0  0  0  0  0
   -0.1790   32.6380    6.7820 H   0  0  0  0  0  0  0  0  0  0  0  0
    3.4860   29.1690    5.5540 H   0  0  0  0  0  0  0  0  0  0  0  0
    4.8300   27.4800    4.6300 H   0  0  0  0  0  0  0  0  0  0  0  0
    6.0160   23.4490    7.0790 S   0  0  0  0  0  0  0  0  0  0  0  0
    6.0150   22.6750    5.8280 O   0  0  0  0  0  0  0  0  0  0  0  0
    7.3380   23.7340    7.6480 O   0  0  0  0  0  0  0  0  0  0  0  0
    5.1530   22.5400    8.2150 N   0  0  0  0  0  0  0  0  0  0  0  0
    4.2580   22.0910    7.9850 H   0  0  0  0  0  0  0  0  0  0  0  0
    5.1870   22.8360    9.2310 H   0  0  0  0  0  0  0  0  0  0  0  0
  1 14  2  0  0  0  0
  1 21  1  0  0  0  0
  1 22  1  0  0  0  0
  2 18  2  0  0  0  0
  2 19  1  0  0  0  0
  2 25  1  0  0  0  0
  3  4  1  0  0  0  0
  3 16  1  0  0  0  0
  3 26  1  0  0  0  0
  3 27  1  0  0  0  0
  4  5  1  0  0  0  0
  4  9  1  0  0  0  0
  4 28  1  0  0  0  0
  5  6  1  0  0  0  0
  5 29  1  0  0  0  0
  5 30  1  0  0  0  0
  6  7  1  0  0  0  0
  6 31  1  0  0  0  0
  6 32  1  0  0  0  0
  7  8  1  0  0  0  0
  7 33  1  0  0  0  0
  7 34  1  0  0  0  0
  8  9  1  0  0  0  0
  8 35  1  0  0  0  0
  8 36  1  0  0  0  0
  9 37  1  0  0  0  0
  9 38  1  0  0  0  0
 10 11  2  0  0  0  0
 10 24  1  0  0  0  0
 10 39  1  0  0  0  0
 11 12  1  0  0  0  0
 11 45  1  0  0  0  0
 12 13  2  0  0  0  0
 12 40  1  0  0  0  0
 13 23  1  0  0  0  0
 13 41  1  0  0  0  0
 14 15  1  0  0  0  0
 15 16  1  0  0  0  0
 15 17  2  0  0  0  0
 17 18  1  0  0  0  0
 17 20  1  0  0  0  0
 19 20  1  0  0  0  0
 19 42  1  0  0  0  0
 20 21  2  0  0  0  0
 22 23  1  0  0  0  0
 22 43  1  0  0  0  0
 23 24  2  0  0  0  0
 24 44  1  0  0  0  0
 45 46  2  0  0  0  0
 45 47  2  0  0  0  0
 45 48  1  0  0  0  0
 48 49  1  0  0  0  0
 48 50  1  0  0  0  0
M  END
$$$$
