CAT-13m
 OpenBabel02232411143D
Structure written by MMmdl.
 44 47  0  0  1  0  0  0  0  0999 V2000
   11.5340   -2.4760    1.4710 C   0  0  0  0  0  0  0  0  0  0  0  0
   12.8690   -2.6340    0.8580 N   0  0  0  0  0  0  0  0  0  0  0  0
   14.0690   -2.5520    1.5650 C   0  0  0  0  0  0  0  0  0  0  0  0
   14.2440   -2.5550    2.9140 N   0  0  0  0  0  0  0  0  0  0  0  0
   15.1400   -2.5760    0.6750 N   0  3  0  0  0  0  0  0  0  0  0  0
   14.6740   -3.0400   -0.6930 C   0  0  2  0  0  0  0  0  0  0  0  0
   14.9560   -4.5200   -0.7060 C   0  0  0  0  0  0  0  0  0  0  0  0
   16.2860   -4.9920   -0.7510 C   0  0  0  0  0  0  0  0  0  0  0  0
   16.5880   -6.2990   -0.5490 N   0  0  0  0  0  0  0  0  0  0  0  0
   15.5620   -7.1400   -0.2080 C   0  0  0  0  0  0  0  0  0  0  0  0
   14.2460   -6.7700   -0.1630 N   0  0  0  0  0  0  0  0  0  0  0  0
   13.9490   -5.4790   -0.4370 C   0  0  0  0  0  0  0  0  0  0  0  0
   15.2340   -2.0860   -1.7260 C   0  0  0  0  0  0  0  0  0  0  0  0
   15.8650   -2.5030   -2.8980 C   0  0  0  0  0  0  0  0  0  0  0  0
   16.3330   -1.5360   -3.7990 C   0  0  0  0  0  0  0  0  0  0  0  0
   16.1830   -0.1720   -3.5440 C   0  0  0  0  0  0  0  0  0  0  0  0
   15.5390    0.2590   -2.3700 C   0  0  0  0  0  0  0  0  0  0  0  0
   15.3380    1.6960   -2.0680 C   0  0  0  0  0  0  0  0  0  0  0  0
   14.9720    2.6060   -3.0730 C   0  0  0  0  0  0  0  0  0  0  0  0
   14.6930    3.9390   -2.7530 C   0  0  0  0  0  0  0  0  0  0  0  0
   14.7600    4.3850   -1.4290 C   0  0  0  0  0  0  0  0  0  0  0  0
   15.1480    3.4750   -0.4420 C   0  0  0  0  0  0  0  0  0  0  0  0
   15.1860    3.9720    1.2090 Cl  0  0  0  0  0  0  0  0  0  0  0  0
   15.4610    2.1500   -0.7430 C   0  0  0  0  0  0  0  0  0  0  0  0
   15.0590   -0.7100   -1.4800 C   0  0  0  0  0  0  0  0  0  0  0  0
   13.1260   -2.7900   -0.5880 C   0  0  0  0  0  0  0  0  0  0  0  0
   12.2690   -2.7250   -1.4080 O   0  0  0  0  0  0  0  0  0  0  0  0
   10.8130   -3.1680    0.9550 H   0  0  0  0  0  0  0  0  0  0  0  0
   11.5670   -2.7450    2.5590 H   0  0  0  0  0  0  0  0  0  0  0  0
   11.1940   -1.4130    1.3540 H   0  0  0  0  0  0  0  0  0  0  0  0
   15.2310   -2.4320    3.2860 H   0  0  0  0  0  0  0  0  0  0  0  0
   16.1050   -2.8050    1.0220 H   0  0  0  0  0  0  0  0  0  0  0  0
   17.1220   -4.2910   -0.9150 H   0  0  0  0  0  0  0  0  0  0  0  0
   15.8070   -8.1980    0.0340 H   0  0  0  0  0  0  0  0  0  0  0  0
   12.8780   -5.2160   -0.4070 H   0  0  0  0  0  0  0  0  0  0  0  0
   15.9910   -3.5630   -3.1140 H   0  0  0  0  0  0  0  0  0  0  0  0
   16.8280   -1.8440   -4.7200 H   0  0  0  0  0  0  0  0  0  0  0  0
   16.5720    0.5570   -4.2640 H   0  0  0  0  0  0  0  0  0  0  0  0
   14.8850    2.2730   -4.1130 H   0  0  0  0  0  0  0  0  0  0  0  0
   14.3990    4.6340   -3.5490 H   0  0  0  0  0  0  0  0  0  0  0  0
   14.4910    5.4140   -1.1740 H   0  0  0  0  0  0  0  0  0  0  0  0
   15.7840    1.4620    0.0390 H   0  0  0  0  0  0  0  0  0  0  0  0
   14.5410   -0.3980   -0.5740 H   0  0  0  0  0  0  0  0  0  0  0  0
   13.5350   -2.1090    3.5480 H   0  0  0  0  0  0  0  0  0  0  0  0
  1  2  1  0  0  0  0
  1 28  1  0  0  0  0
  1 29  1  0  0  0  0
  1 30  1  0  0  0  0
  2  3  1  0  0  0  0
  2 26  1  0  0  0  0
  3  4  1  0  0  0  0
  3  5  2  0  0  0  0
  4 31  1  0  0  0  0
  4 44  1  0  0  0  0
  5  6  1  0  0  0  0
  5 32  1  0  0  0  0
  6  7  1  6  0  0  0
  6 13  1  0  0  0  0
  6 26  1  0  0  0  0
  7  8  2  0  0  0  0
  7 12  1  0  0  0  0
  8  9  1  0  0  0  0
  8 33  1  0  0  0  0
  9 10  2  0  0  0  0
 10 11  1  0  0  0  0
 10 34  1  0  0  0  0
 11 12  2  0  0  0  0
 12 35  1  0  0  0  0
 13 14  2  0  0  0  0
 13 25  1  0  0  0  0
 14 15  1  0  0  0  0
 14 36  1  0  0  0  0
 15 16  2  0  0  0  0
 15 37  1  0  0  0  0
 16 17  1  0  0  0  0
 16 38  1  0  0  0  0
 17 18  1  0  0  0  0
 17 25  2  0  0  0  0
 18 19  2  0  0  0  0
 18 24  1  0  0  0  0
 19 20  1  0  0  0  0
 19 39  1  0  0  0  0
 20 21  2  0  0  0  0
 20 40  1  0  0  0  0
 21 22  1  0  0  0  0
 21 41  1  0  0  0  0
 22 23  1  0  0  0  0
 22 24  2  0  0  0  0
 24 42  1  0  0  0  0
 25 43  1  0  0  0  0
 26 27  2  0  0  0  0
M  CHG  1   5   1
M  END
$$$$
