18638-1
 OpenBabel02232411163D
Structure written by MMmdl.
 52 53  0  0  0  0  0  0  0  0999 V2000
   24.0180   12.4770   30.3190 C   0  0  0  0  0  0  0  0  0  0  0  0
   23.5730   11.0330   30.4530 C   0  0  0  0  0  0  0  0  0  0  0  0
   22.3080   11.1460   31.2240 O   0  0  0  0  0  0  0  0  0  0  0  0
   21.6760   10.0140   31.5960 C   0  0  0  0  0  0  0  0  0  0  0  0
   22.1610    8.8140   31.1920 N   0  0  0  0  0  0  0  0  0  0  0  0
   21.4300    7.6880   31.5360 C   0  0  0  0  0  0  0  0  0  0  0  0
   20.2690    7.7490   32.3000 C   0  0  0  0  0  0  0  0  0  0  0  0
   19.7720    9.0090   32.7260 C   0  0  0  0  0  0  0  0  0  0  0  0
   18.6060    9.0670   33.4490 N   0  0  0  0  0  0  0  0  0  0  0  0
   20.4910   10.1950   32.3710 C   0  0  0  0  0  0  0  0  0  0  0  0
   20.0800   11.5010   32.7120 C   0  0  0  0  0  0  0  0  0  0  0  0
   19.7880   12.5970   32.9580 N   0  0  0  0  0  0  0  0  0  0  0  0
   21.9800    6.4950   31.0020 N   0  0  0  0  0  0  0  0  0  0  0  0
   21.2910    5.2650   30.9020 C   0  0  0  0  0  0  0  0  0  0  0  0
   20.2100    5.0760   31.4200 O   0  0  0  0  0  0  0  0  0  0  0  0
   21.9710    4.2350   30.0150 C   0  0  0  0  0  0  0  0  0  0  0  0
   23.3240    3.7750   30.4660 C   0  0  0  0  0  0  0  0  0  0  0  0
   24.4970    4.4550   30.0240 C   0  0  0  0  0  0  0  0  0  0  0  0
   24.2060    5.5900   29.2730 O   0  0  0  0  0  0  0  0  0  0  0  0
   25.2720    6.5630   29.0990 C   0  0  0  0  0  0  0  0  0  0  0  0
   25.7690    3.9560   30.2800 C   0  0  0  0  0  0  0  0  0  0  0  0
   25.9320    2.7850   31.0440 C   0  0  0  0  0  0  0  0  0  0  0  0
   27.5550    2.1420   31.2250 S   0  0  0  0  0  0  0  0  0  0  0  0
   28.5520    3.2390   31.1520 O   0  0  0  0  0  0  0  0  0  0  0  0
   27.6590    1.4270   32.5180 O   0  0  0  0  0  0  0  0  0  0  0  0
   27.7250    1.0570   29.8820 C   0  0  0  0  0  0  0  0  0  0  0  0
   24.7830    2.1610   31.5510 C   0  0  0  0  0  0  0  0  0  0  0  0
   23.4840    2.6370   31.2410 C   0  0  0  0  0  0  0  0  0  0  0  0
   25.0130    1.0940   32.3840 O   0  0  0  0  0  0  0  0  0  0  0  0
   23.9090    0.1810   32.6430 C   0  0  0  0  0  0  0  0  0  0  0  0
   24.9430   12.5100   29.6890 H   0  0  0  0  0  0  0  0  0  0  0  0
   23.2350   13.0910   29.8130 H   0  0  0  0  0  0  0  0  0  0  0  0
   24.2420   12.9290   31.3110 H   0  0  0  0  0  0  0  0  0  0  0  0
   23.3290   10.5690   29.4720 H   0  0  0  0  0  0  0  0  0  0  0  0
   24.2880   10.4170   31.0420 H   0  0  0  0  0  0  0  0  0  0  0  0
   19.7160    6.8430   32.5600 H   0  0  0  0  0  0  0  0  0  0  0  0
   18.1000    8.2020   33.7180 H   0  0  0  0  0  0  0  0  0  0  0  0
   18.2030    9.9590   33.7370 H   0  0  0  0  0  0  0  0  0  0  0  0
   22.8960    6.5870   30.5040 H   0  0  0  0  0  0  0  0  0  0  0  0
   21.2950    3.3420   29.9350 H   0  0  0  0  0  0  0  0  0  0  0  0
   22.0710    4.6960   28.9900 H   0  0  0  0  0  0  0  0  0  0  0  0
   24.7080    7.4380   28.7000 H   0  0  0  0  0  0  0  0  0  0  0  0
   25.7480    6.8010   30.0740 H   0  0  0  0  0  0  0  0  0  0  0  0
   26.0020    6.1740   28.3570 H   0  0  0  0  0  0  0  0  0  0  0  0
   26.6450    4.4680   29.8630 H   0  0  0  0  0  0  0  0  0  0  0  0
   27.6570    1.5940   28.8970 H   0  0  0  0  0  0  0  0  0  0  0  0
   28.7070    0.5190   29.8810 H   0  0  0  0  0  0  0  0  0  0  0  0
   26.9260    0.2710   29.8620 H   0  0  0  0  0  0  0  0  0  0  0  0
   22.6050    2.0980   31.5970 H   0  0  0  0  0  0  0  0  0  0  0  0
   23.5250   -0.2210   31.6820 H   0  0  0  0  0  0  0  0  0  0  0  0
   23.1190    0.6820   33.2430 H   0  0  0  0  0  0  0  0  0  0  0  0
   24.4130   -0.6200   33.2360 H   0  0  0  0  0  0  0  0  0  0  0  0
  1  2  1  0  0  0  0
  1 31  1  0  0  0  0
  1 32  1  0  0  0  0
  1 33  1  0  0  0  0
  2  3  1  0  0  0  0
  2 34  1  0  0  0  0
  2 35  1  0  0  0  0
  3  4  1  0  0  0  0
  4 10  2  0  0  0  0
  4  5  1  0  0  0  0
  5  6  2  0  0  0  0
  6  7  1  0  0  0  0
  6 13  1  0  0  0  0
  7  8  2  0  0  0  0
  7 36  1  0  0  0  0
  8  9  1  0  0  0  0
  8 10  1  0  0  0  0
  9 37  1  0  0  0  0
  9 38  1  0  0  0  0
 10 11  1  0  0  0  0
 11 12  3  0  0  0  0
 13 14  1  0  0  0  0
 13 39  1  0  0  0  0
 14 15  2  0  0  0  0
 14 16  1  0  0  0  0
 16 17  1  0  0  0  0
 16 40  1  0  0  0  0
 16 41  1  0  0  0  0
 17 28  2  0  0  0  0
 17 18  1  0  0  0  0
 18 19  1  0  0  0  0
 18 21  2  0  0  0  0
 19 20  1  0  0  0  0
 20 42  1  0  0  0  0
 20 43  1  0  0  0  0
 20 44  1  0  0  0  0
 21 22  1  0  0  0  0
 21 45  1  0  0  0  0
 22 23  1  0  0  0  0
 22 27  2  0  0  0  0
 23 24  2  0  0  0  0
 23 25  2  0  0  0  0
 23 26  1  0  0  0  0
 26 46  1  0  0  0  0
 26 47  1  0  0  0  0
 26 48  1  0  0  0  0
 27 28  1  0  0  0  0
 27 29  1  0  0  0  0
 28 49  1  0  0  0  0
 29 30  1  0  0  0  0
 30 50  1  0  0  0  0
 30 51  1  0  0  0  0
 30 52  1  0  0  0  0
M  END
$$$$
