57
 OpenBabel02232411163D
Structure written by MMmdl.
 47 50  0  0  0  0  0  0  0  0999 V2000
    3.3460  -48.1240    7.0980 O   0  0  0  0  0  0  0  0  0  0  0  0
    2.9630  -49.0750    6.4000 C   0  0  0  0  0  0  0  0  0  0  0  0
    3.6700  -49.8160    5.6900 O   0  5  0  0  0  0  0  0  0  0  0  0
    1.4600  -49.4180    6.3840 C   0  0  0  0  0  0  0  0  0  0  0  0
   -0.3960  -50.7510    6.5830 C   0  0  0  0  0  0  0  0  0  0  0  0
   -1.3230  -51.7800    6.8340 C   0  0  0  0  0  0  0  0  0  0  0  0
   -2.6500  -51.5430    6.5100 C   0  0  0  0  0  0  0  0  0  0  0  0
   -3.0630  -50.3100    5.9480 C   0  0  0  0  0  0  0  0  0  0  0  0
   -2.1580  -49.2880    5.7060 C   0  0  0  0  0  0  0  0  0  0  0  0
   -0.8030  -49.4850    6.0260 C   0  0  0  0  0  0  0  0  0  0  0  0
    0.3810  -48.6630    5.9310 C   0  0  0  0  0  0  0  0  0  0  0  0
    0.3610  -47.2550    5.4500 C   0  0  0  0  0  0  0  0  0  0  0  0
    0.3290  -46.2270    6.5950 C   0  0  0  0  0  0  0  0  0  0  0  0
   -0.8270  -46.3950    7.5730 C   0  0  0  0  0  0  0  0  0  0  0  0
   -2.0210  -45.8610    6.8820 O   0  0  0  0  0  0  0  0  0  0  0  0
   -3.1970  -45.8680    7.5710 C   0  0  0  0  0  0  0  0  0  0  0  0
   -5.7130  -45.6440    8.8130 C   0  0  0  0  0  0  0  0  0  0  0  0
   -4.7160  -46.4060    9.3740 C   0  0  0  0  0  0  0  0  0  0  0  0
   -3.4400  -46.5210    8.7660 C   0  0  0  0  0  0  0  0  0  0  0  0
   -1.0210  -52.7320    7.2710 H   0  0  0  0  0  0  0  0  0  0  0  0
   -3.4000  -52.3140    6.6920 H   0  0  0  0  0  0  0  0  0  0  0  0
   -4.1180  -50.1740    5.7080 H   0  0  0  0  0  0  0  0  0  0  0  0
   -2.4990  -48.3440    5.2790 H   0  0  0  0  0  0  0  0  0  0  0  0
   -0.5550  -47.1040    4.8220 H   0  0  0  0  0  0  0  0  0  0  0  0
    1.2590  -47.0410    4.8220 H   0  0  0  0  0  0  0  0  0  0  0  0
    1.2720  -46.3230    7.1920 H   0  0  0  0  0  0  0  0  0  0  0  0
    0.2730  -45.2030    6.1600 H   0  0  0  0  0  0  0  0  0  0  0  0
   -0.6930  -45.7560    8.4730 H   0  0  0  0  0  0  0  0  0  0  0  0
   -1.0370  -47.4590    7.8100 H   0  0  0  0  0  0  0  0  0  0  0  0
   -2.7010  -47.1380    9.2640 H   0  0  0  0  0  0  0  0  0  0  0  0
   -5.4960  -44.9890    7.5620 C   0  0  0  0  0  0  0  0  0  0  0  0
   -4.2350  -45.1010    6.9170 C   0  0  0  0  0  0  0  0  0  0  0  0
   -4.0390  -44.4910    5.6450 C   0  0  0  0  0  0  0  0  0  0  0  0
   -5.0520  -43.7810    5.0460 C   0  0  0  0  0  0  0  0  0  0  0  0
   -6.3150  -43.6660    5.6880 C   0  0  0  0  0  0  0  0  0  0  0  0
   -6.5350  -44.2510    6.9120 C   0  0  0  0  0  0  0  0  0  0  0  0
   -3.0800  -44.6200    5.1430 H   0  0  0  0  0  0  0  0  0  0  0  0
   -4.9050  -43.3060    4.0790 H   0  0  0  0  0  0  0  0  0  0  0  0
   -7.1060  -43.1110    5.1900 H   0  0  0  0  0  0  0  0  0  0  0  0
   -7.5070  -44.1730    7.3980 H   0  0  0  0  0  0  0  0  0  0  0  0
   -4.8990  -46.9430   10.3070 H   0  0  0  0  0  0  0  0  0  0  0  0
   -6.6830  -45.5470    9.2980 H   0  0  0  0  0  0  0  0  0  0  0  0
    1.7430  -51.7590    7.4470 C   0  0  0  0  0  0  0  0  0  0  0  0
    1.5140  -52.7540    6.9700 H   0  0  0  0  0  0  0  0  0  0  0  0
    2.8500  -51.5960    7.3950 H   0  0  0  0  0  0  0  0  0  0  0  0
    1.4400  -51.8290    8.5310 H   0  0  0  0  0  0  0  0  0  0  0  0
    0.9960  -50.6890    6.7750 N   0  0  0  0  0  0  0  0  0  0  0  0
  1  2  2  0  0  0  0
  2  3  1  0  0  0  0
  2  4  1  0  0  0  0
  4 11  2  0  0  0  0
  4 47  1  0  0  0  0
  5  6  2  0  0  0  0
  5 10  1  0  0  0  0
  5 47  1  0  0  0  0
  6  7  1  0  0  0  0
  6 20  1  0  0  0  0
  7  8  2  0  0  0  0
  7 21  1  0  0  0  0
  8  9  1  0  0  0  0
  8 22  1  0  0  0  0
  9 10  2  0  0  0  0
  9 23  1  0  0  0  0
 10 11  1  0  0  0  0
 11 12  1  0  0  0  0
 12 24  1  0  0  0  0
 12 25  1  0  0  0  0
 12 13  1  0  0  0  0
 13 14  1  0  0  0  0
 13 26  1  0  0  0  0
 13 27  1  0  0  0  0
 14 15  1  0  0  0  0
 14 28  1  0  0  0  0
 14 29  1  0  0  0  0
 15 16  1  0  0  0  0
 16 19  2  0  0  0  0
 16 32  1  0  0  0  0
 17 18  2  0  0  0  0
 17 31  1  0  0  0  0
 17 42  1  0  0  0  0
 18 19  1  0  0  0  0
 18 41  1  0  0  0  0
 19 30  1  0  0  0  0
 31 32  2  0  0  0  0
 31 36  1  0  0  0  0
 32 33  1  0  0  0  0
 33 34  2  0  0  0  0
 33 37  1  0  0  0  0
 34 35  1  0  0  0  0
 34 38  1  0  0  0  0
 35 36  2  0  0  0  0
 35 39  1  0  0  0  0
 36 40  1  0  0  0  0
 43 44  1  0  0  0  0
 43 45  1  0  0  0  0
 43 46  1  0  0  0  0
 43 47  1  0  0  0  0
M  CHG  1   3  -1
M  END
$$$$
