18624-1
 OpenBabel02232411163D
Structure written by MMmdl.
 38 39  0  0  0  0  0  0  0  0999 V2000
   23.1990   10.8880   29.0590 C   0  0  0  0  0  0  0  0  0  0  0  0
   23.4720   11.0970   30.5330 C   0  0  0  0  0  0  0  0  0  0  0  0
   22.2060   11.1620   31.2920 O   0  0  0  0  0  0  0  0  0  0  0  0
   21.5630   10.0200   31.6200 C   0  0  0  0  0  0  0  0  0  0  0  0
   22.0380    8.8320   31.1800 N   0  0  0  0  0  0  0  0  0  0  0  0
   21.3070    7.6940   31.4870 C   0  0  0  0  0  0  0  0  0  0  0  0
   20.1480    7.7300   32.2560 C   0  0  0  0  0  0  0  0  0  0  0  0
   19.6650    8.9800   32.7290 C   0  0  0  0  0  0  0  0  0  0  0  0
   18.5110    9.0270   33.4690 N   0  0  0  0  0  0  0  0  0  0  0  0
   20.3830   10.1760   32.4070 C   0  0  0  0  0  0  0  0  0  0  0  0
   19.9810   11.4750   32.7860 C   0  0  0  0  0  0  0  0  0  0  0  0
   19.7030   12.5680   33.0570 N   0  0  0  0  0  0  0  0  0  0  0  0
   21.8810    6.5390   30.9060 N   0  0  0  0  0  0  0  0  0  0  0  0
   21.3280    5.2340   30.8680 C   0  0  0  0  0  0  0  0  0  0  0  0
   20.2840    4.9570   31.4170 O   0  0  0  0  0  0  0  0  0  0  0  0
   22.1400    4.2610   30.0270 C   0  0  0  0  0  0  0  0  0  0  0  0
   23.4370    3.8790   30.6890 C   0  0  0  0  0  0  0  0  0  0  0  0
   24.6020    4.6270   30.4490 C   0  0  0  0  0  0  0  0  0  0  0  0
   25.7970    4.2880   31.0880 C   0  0  0  0  0  0  0  0  0  0  0  0
   25.8440    3.1980   31.9630 C   0  0  0  0  0  0  0  0  0  0  0  0
   24.6930    2.4360   32.1830 C   0  0  0  0  0  0  0  0  0  0  0  0
   23.4940    2.7690   31.5440 C   0  0  0  0  0  0  0  0  0  0  0  0
   22.8450    9.8510   28.8540 H   0  0  0  0  0  0  0  0  0  0  0  0
   22.4390   11.6080   28.6810 H   0  0  0  0  0  0  0  0  0  0  0  0
   24.1440   11.0490   28.4830 H   0  0  0  0  0  0  0  0  0  0  0  0
   23.8600   12.1220   30.7500 H   0  0  0  0  0  0  0  0  0  0  0  0
   24.1230   10.3010   30.9610 H   0  0  0  0  0  0  0  0  0  0  0  0
   19.5930    6.8180   32.4850 H   0  0  0  0  0  0  0  0  0  0  0  0
   18.0140    8.1590   33.7460 H   0  0  0  0  0  0  0  0  0  0  0  0
   18.1190    9.9140   33.7850 H   0  0  0  0  0  0  0  0  0  0  0  0
   22.7830    6.7040   30.4150 H   0  0  0  0  0  0  0  0  0  0  0  0
   21.5220    3.3420   29.8530 H   0  0  0  0  0  0  0  0  0  0  0  0
   22.3470    4.7300   29.0280 H   0  0  0  0  0  0  0  0  0  0  0  0
   24.5960    5.4720   29.7560 H   0  0  0  0  0  0  0  0  0  0  0  0
   26.6990    4.8770   30.9000 H   0  0  0  0  0  0  0  0  0  0  0  0
   26.7790    2.9400   32.4660 H   0  0  0  0  0  0  0  0  0  0  0  0
   24.7310    1.5730   32.8550 H   0  0  0  0  0  0  0  0  0  0  0  0
   22.6110    2.1490   31.7120 H   0  0  0  0  0  0  0  0  0  0  0  0
  1  2  1  0  0  0  0
  1 23  1  0  0  0  0
  1 24  1  0  0  0  0
  1 25  1  0  0  0  0
  2  3  1  0  0  0  0
  2 26  1  0  0  0  0
  2 27  1  0  0  0  0
  3  4  1  0  0  0  0
  4 10  2  0  0  0  0
  4  5  1  0  0  0  0
  5  6  2  0  0  0  0
  6  7  1  0  0  0  0
  6 13  1  0  0  0  0
  7  8  2  0  0  0  0
  7 28  1  0  0  0  0
  8  9  1  0  0  0  0
  8 10  1  0  0  0  0
  9 29  1  0  0  0  0
  9 30  1  0  0  0  0
 10 11  1  0  0  0  0
 11 12  3  0  0  0  0
 13 14  1  0  0  0  0
 13 31  1  0  0  0  0
 14 15  2  0  0  0  0
 14 16  1  0  0  0  0
 16 17  1  0  0  0  0
 16 32  1  0  0  0  0
 16 33  1  0  0  0  0
 17 22  2  0  0  0  0
 17 18  1  0  0  0  0
 18 19  2  0  0  0  0
 18 34  1  0  0  0  0
 19 20  1  0  0  0  0
 19 35  1  0  0  0  0
 20 21  2  0  0  0  0
 20 36  1  0  0  0  0
 21 22  1  0  0  0  0
 21 37  1  0  0  0  0
 22 38  1  0  0  0  0
M  END
$$$$
