18639-1
 OpenBabel02232411163D
Structure written by MMmdl.
 48 49  0  0  0  0  0  0  0  0999 V2000
   23.2070   10.7780   29.0620 C   0  0  0  0  0  0  0  0  0  0  0  0
   23.4890   11.0300   30.5280 C   0  0  0  0  0  0  0  0  0  0  0  0
   22.2260   11.1440   31.2890 O   0  0  0  0  0  0  0  0  0  0  0  0
   21.5640   10.0170   31.6360 C   0  0  0  0  0  0  0  0  0  0  0  0
   22.0300    8.8190   31.2150 N   0  0  0  0  0  0  0  0  0  0  0  0
   21.2820    7.6960   31.5270 C   0  0  0  0  0  0  0  0  0  0  0  0
   20.1160    7.7520   32.2810 C   0  0  0  0  0  0  0  0  0  0  0  0
   19.6490    9.0110   32.7440 C   0  0  0  0  0  0  0  0  0  0  0  0
   18.4960    9.0690   33.4840 N   0  0  0  0  0  0  0  0  0  0  0  0
   20.3810   10.1970   32.4130 C   0  0  0  0  0  0  0  0  0  0  0  0
   19.9890   11.5030   32.7760 C   0  0  0  0  0  0  0  0  0  0  0  0
   19.7170   12.6000   33.0340 N   0  0  0  0  0  0  0  0  0  0  0  0
   21.8550    6.5270   30.9730 N   0  0  0  0  0  0  0  0  0  0  0  0
   21.2410    5.2630   30.8620 C   0  0  0  0  0  0  0  0  0  0  0  0
   20.1400    5.0230   31.3110 O   0  0  0  0  0  0  0  0  0  0  0  0
   22.0610    4.2610   30.0580 C   0  0  0  0  0  0  0  0  0  0  0  0
   23.4250    3.9810   30.6180 C   0  0  0  0  0  0  0  0  0  0  0  0
   24.5280    4.8350   30.3040 C   0  0  0  0  0  0  0  0  0  0  0  0
   24.1790    5.8850   29.4620 O   0  0  0  0  0  0  0  0  0  0  0  0
   25.1400    6.9650   29.3010 C   0  0  0  0  0  0  0  0  0  0  0  0
   25.8040    4.5880   30.7850 C   0  0  0  0  0  0  0  0  0  0  0  0
   26.0240    3.4720   31.6200 C   0  0  0  0  0  0  0  0  0  0  0  0
   27.3720    3.2110   32.1330 N   0  3  0  0  0  0  0  0  0  0  0  0
   27.4940    2.4300   33.0640 O   0  5  0  0  0  0  0  0  0  0  0  0
   28.3190    3.7790   31.6030 O   0  0  0  0  0  0  0  0  0  0  0  0
   24.9460    2.6120   31.9350 C   0  0  0  0  0  0  0  0  0  0  0  0
   23.6550    2.8730   31.4190 C   0  0  0  0  0  0  0  0  0  0  0  0
   25.2840    1.5710   32.7470 O   0  0  0  0  0  0  0  0  0  0  0  0
   24.2810    0.5380   32.9790 C   0  0  0  0  0  0  0  0  0  0  0  0
   24.1650   10.8340   28.4890 H   0  0  0  0  0  0  0  0  0  0  0  0
   22.5090   11.5390   28.6460 H   0  0  0  0  0  0  0  0  0  0  0  0
   22.7670    9.7650   28.9040 H   0  0  0  0  0  0  0  0  0  0  0  0
   23.9000   12.0520   30.7100 H   0  0  0  0  0  0  0  0  0  0  0  0
   24.1240   10.2340   30.9780 H   0  0  0  0  0  0  0  0  0  0  0  0
   19.5440    6.8490   32.5040 H   0  0  0  0  0  0  0  0  0  0  0  0
   17.9900    8.2030   33.7510 H   0  0  0  0  0  0  0  0  0  0  0  0
   18.1050    9.9600   33.7920 H   0  0  0  0  0  0  0  0  0  0  0  0
   22.7800    6.6700   30.4950 H   0  0  0  0  0  0  0  0  0  0  0  0
   21.4820    3.3030   29.9900 H   0  0  0  0  0  0  0  0  0  0  0  0
   22.1780    4.6820   29.0180 H   0  0  0  0  0  0  0  0  0  0  0  0
   25.4570    7.3590   30.2910 H   0  0  0  0  0  0  0  0  0  0  0  0
   25.9960    6.6040   28.6920 H   0  0  0  0  0  0  0  0  0  0  0  0
   24.5310    7.7160   28.7470 H   0  0  0  0  0  0  0  0  0  0  0  0
   26.6480    5.2350   30.5210 H   0  0  0  0  0  0  0  0  0  0  0  0
   22.8330    2.1910   31.6510 H   0  0  0  0  0  0  0  0  0  0  0  0
   24.8590   -0.1970   33.5880 H   0  0  0  0  0  0  0  0  0  0  0  0
   23.4300    0.9550   33.5590 H   0  0  0  0  0  0  0  0  0  0  0  0
   23.9620    0.0930   32.0120 H   0  0  0  0  0  0  0  0  0  0  0  0
  1  2  1  0  0  0  0
  1 30  1  0  0  0  0
  1 31  1  0  0  0  0
  1 32  1  0  0  0  0
  2  3  1  0  0  0  0
  2 33  1  0  0  0  0
  2 34  1  0  0  0  0
  3  4  1  0  0  0  0
  4 10  2  0  0  0  0
  4  5  1  0  0  0  0
  5  6  2  0  0  0  0
  6  7  1  0  0  0  0
  6 13  1  0  0  0  0
  7  8  2  0  0  0  0
  7 35  1  0  0  0  0
  8  9  1  0  0  0  0
  8 10  1  0  0  0  0
  9 36  1  0  0  0  0
  9 37  1  0  0  0  0
 10 11  1  0  0  0  0
 11 12  3  0  0  0  0
 13 14  1  0  0  0  0
 13 38  1  0  0  0  0
 14 15  2  0  0  0  0
 14 16  1  0  0  0  0
 16 17  1  0  0  0  0
 16 39  1  0  0  0  0
 16 40  1  0  0  0  0
 17 27  2  0  0  0  0
 17 18  1  0  0  0  0
 18 19  1  0  0  0  0
 18 21  2  0  0  0  0
 19 20  1  0  0  0  0
 20 41  1  0  0  0  0
 20 42  1  0  0  0  0
 20 43  1  0  0  0  0
 21 22  1  0  0  0  0
 21 44  1  0  0  0  0
 22 23  1  0  0  0  0
 22 26  2  0  0  0  0
 23 24  1  0  0  0  0
 23 25  2  0  0  0  0
 26 27  1  0  0  0  0
 26 28  1  0  0  0  0
 27 45  1  0  0  0  0
 28 29  1  0  0  0  0
 29 46  1  0  0  0  0
 29 47  1  0  0  0  0
 29 48  1  0  0  0  0
M  CHG  2  23   1  24  -1
M  END
$$$$
