p38a_2n
 OpenBabel02232411163D
Structure written by MMmdl.
 53 56  0  0  0  0  0  0  0  0999 V2000
   36.3760   36.0530   15.8060 C   0  0  0  0  0  0  0  0  0  0  0  0
   34.4010   35.0150   21.1940 C   0  0  0  0  0  0  0  0  0  0  0  0
   35.7600   35.5620   16.9540 C   0  0  0  0  0  0  0  0  0  0  0  0
   33.7800   39.0920   23.7320 C   0  0  0  0  0  0  0  0  0  0  0  0
   34.7220   37.8570   21.4510 C   0  0  0  0  0  0  0  0  0  0  0  0
   35.3030   37.1850   20.3210 C   0  0  0  0  0  0  0  0  0  0  0  0
   37.6640   36.5800   15.9670 C   0  0  0  0  0  0  0  0  0  0  0  0
   38.3410   36.6000   17.1890 C   0  0  0  0  0  0  0  0  0  0  0  0
   37.6860   36.1340   18.3350 C   0  0  0  0  0  0  0  0  0  0  0  0
   34.0540   37.1200   22.4730 C   0  0  0  0  0  0  0  0  0  0  0  0
   34.7980   39.2660   21.6210 C   0  0  0  0  0  0  0  0  0  0  0  0
   35.1810   35.8410   20.2340 C   0  0  0  0  0  0  0  0  0  0  0  0
   36.3940   35.6150   18.2120 C   0  0  0  0  0  0  0  0  0  0  0  0
   34.5530   35.0150   16.8880 F   0  0  0  0  0  0  0  0  0  0  0  0
   35.7170   34.9910   19.2680 O   0  0  0  0  0  0  0  0  0  0  0  0
   34.3510   39.8930   22.7150 N   0  0  0  0  0  0  0  0  0  0  0  0
   34.2030   33.8250   21.0810 O   0  0  0  0  0  0  0  0  0  0  0  0
   33.8420   35.7380   22.3070 N   0  0  0  0  0  0  0  0  0  0  0  0
   33.5990   37.7280   23.6200 N   0  0  0  0  0  0  0  0  0  0  0  0
   33.3740   39.7820   24.8490 N   0  0  0  0  0  0  0  0  0  0  0  0
   35.8750   36.0490   14.8350 H   0  0  0  0  0  0  0  0  0  0  0  0
   35.8350   37.7880   19.5820 H   0  0  0  0  0  0  0  0  0  0  0  0
   39.3550   37.0000   17.2630 H   0  0  0  0  0  0  0  0  0  0  0  0
   38.1810   36.2000   19.3070 H   0  0  0  0  0  0  0  0  0  0  0  0
   35.2400   39.8890   20.8260 H   0  0  0  0  0  0  0  0  0  0  0  0
   33.5840   40.8010   24.8950 H   0  0  0  0  0  0  0  0  0  0  0  0
   38.2550   37.1180   14.9020 F   0  0  0  0  0  0  0  0  0  0  0  0
   33.4240   37.8550   28.1830 C   0  0  0  0  0  0  0  0  0  0  0  0
   33.9510   38.3060   26.8150 C   0  0  0  0  0  0  0  0  0  0  0  0
   32.9060   39.2260   26.1530 C   0  0  0  0  0  0  0  0  0  0  0  0
   31.5540   38.4960   26.0410 C   0  0  0  0  0  0  0  0  0  0  0  0
   31.1240   38.0170   27.4350 C   0  0  0  0  0  0  0  0  0  0  0  0
   32.1370   37.2070   28.0740 O   0  0  0  0  0  0  0  0  0  0  0  0
   33.3360   38.7190   28.8820 H   0  0  0  0  0  0  0  0  0  0  0  0
   34.0590   37.0450   28.6130 H   0  0  0  0  0  0  0  0  0  0  0  0
   34.1340   37.4110   26.1720 H   0  0  0  0  0  0  0  0  0  0  0  0
   34.9150   38.8530   26.9480 H   0  0  0  0  0  0  0  0  0  0  0  0
   32.7670   40.1440   26.8020 H   0  0  0  0  0  0  0  0  0  0  0  0
   30.7810   39.1850   25.6260 H   0  0  0  0  0  0  0  0  0  0  0  0
   31.6470   37.6190   25.3550 H   0  0  0  0  0  0  0  0  0  0  0  0
   30.8850   38.8760   28.0990 H   0  0  0  0  0  0  0  0  0  0  0  0
   30.2700   37.3040   27.3670 H   0  0  0  0  0  0  0  0  0  0  0  0
   33.0030   34.9740   23.2890 C   0  0  0  0  0  0  0  0  0  0  0  0
   32.3430   35.6960   23.8480 H   0  0  0  0  0  0  0  0  0  0  0  0
   32.3460   34.2730   22.7030 H   0  0  0  0  0  0  0  0  0  0  0  0
   33.8620   34.1840   24.2860 C   0  0  0  0  0  0  0  0  0  0  0  0
   34.4820   33.4240   23.7550 H   0  0  0  0  0  0  0  0  0  0  0  0
   34.5460   34.8780   24.8330 H   0  0  0  0  0  0  0  0  0  0  0  0
   32.9500   33.4700   25.2990 C   0  0  0  0  0  0  0  0  0  0  0  0
   32.5620   34.1800   26.0670 H   0  0  0  0  0  0  0  0  0  0  0  0
   32.1160   32.9330   24.7900 H   0  0  0  0  0  0  0  0  0  0  0  0
   33.6970   32.5210   26.0780 O   0  0  0  0  0  0  0  0  0  0  0  0
   34.0470   31.8040   25.4590 H   0  0  0  0  0  0  0  0  0  0  0  0
  1  3  2  0  0  0  0
  1  7  1  0  0  0  0
  1 21  1  0  0  0  0
  2 12  1  0  0  0  0
  2 17  2  0  0  0  0
  2 18  1  0  0  0  0
  3 13  1  0  0  0  0
  3 14  1  0  0  0  0
  4 16  2  0  0  0  0
  4 19  1  0  0  0  0
  4 20  1  0  0  0  0
  5  6  1  0  0  0  0
  5 10  1  0  0  0  0
  5 11  2  0  0  0  0
  6 12  2  0  0  0  0
  6 22  1  0  0  0  0
  7  8  2  0  0  0  0
  7 27  1  0  0  0  0
  8  9  1  0  0  0  0
  8 23  1  0  0  0  0
  9 13  2  0  0  0  0
  9 24  1  0  0  0  0
 10 18  1  0  0  0  0
 10 19  2  0  0  0  0
 11 16  1  0  0  0  0
 11 25  1  0  0  0  0
 12 15  1  0  0  0  0
 13 15  1  0  0  0  0
 18 43  1  0  0  0  0
 20 26  1  0  0  0  0
 20 30  1  0  0  0  0
 28 29  1  0  0  0  0
 28 33  1  0  0  0  0
 28 34  1  0  0  0  0
 28 35  1  0  0  0  0
 29 30  1  0  0  0  0
 29 36  1  0  0  0  0
 29 37  1  0  0  0  0
 30 31  1  0  0  0  0
 30 38  1  0  0  0  0
 31 32  1  0  0  0  0
 31 39  1  0  0  0  0
 31 40  1  0  0  0  0
 32 33  1  0  0  0  0
 32 41  1  0  0  0  0
 32 42  1  0  0  0  0
 43 44  1  0  0  0  0
 43 45  1  0  0  0  0
 43 46  1  0  0  0  0
 46 47  1  0  0  0  0
 46 48  1  0  0  0  0
 46 49  1  0  0  0  0
 49 50  1  0  0  0  0
 49 51  1  0  0  0  0
 49 52  1  0  0  0  0
 52 53  1  0  0  0  0
M  END
$$$$
