p38a_2p
 OpenBabel02232411163D
Structure written by MMmdl.
 58 61  0  0  0  0  0  0  0  0999 V2000
   38.2920   36.5460   17.1600 C   0  0  0  0  0  0  0  0  0  0  0  0
   34.4880   35.0380   21.2020 C   0  0  0  0  0  0  0  0  0  0  0  0
   37.5190   36.0790   18.2200 C   0  0  0  0  0  0  0  0  0  0  0  0
   33.6750   39.1300   23.6680 C   0  0  0  0  0  0  0  0  0  0  0  0
   34.5550   37.9150   21.3520 C   0  0  0  0  0  0  0  0  0  0  0  0
   35.0300   37.2610   20.1640 C   0  0  0  0  0  0  0  0  0  0  0  0
   37.6350   36.7040   15.9320 C   0  0  0  0  0  0  0  0  0  0  0  0
   36.2860   36.3980   15.7350 C   0  0  0  0  0  0  0  0  0  0  0  0
   35.5350   35.9140   16.8120 C   0  0  0  0  0  0  0  0  0  0  0  0
   34.0550   37.1510   22.4470 C   0  0  0  0  0  0  0  0  0  0  0  0
   34.5720   39.3270   21.5050 C   0  0  0  0  0  0  0  0  0  0  0  0
   35.0210   35.9100   20.1190 C   0  0  0  0  0  0  0  0  0  0  0  0
   36.1600   35.7410   18.0500 C   0  0  0  0  0  0  0  0  0  0  0  0
   38.0570   35.9460   19.4250 F   0  0  0  0  0  0  0  0  0  0  0  0
   35.4640   35.0930   19.0800 O   0  0  0  0  0  0  0  0  0  0  0  0
   34.1680   39.9440   22.6230 N   0  0  0  0  0  0  0  0  0  0  0  0
   34.4480   33.8300   21.1710 O   0  0  0  0  0  0  0  0  0  0  0  0
   34.0150   35.7470   22.3680 N   0  0  0  0  0  0  0  0  0  0  0  0
   33.6270   37.7540   23.6080 N   0  0  0  0  0  0  0  0  0  0  0  0
   33.1820   39.8140   24.7570 N   0  0  0  0  0  0  0  0  0  0  0  0
   39.3450   36.8150   17.2880 H   0  0  0  0  0  0  0  0  0  0  0  0
   35.3900   37.8840   19.3430 H   0  0  0  0  0  0  0  0  0  0  0  0
   35.8070   36.5460   14.7640 H   0  0  0  0  0  0  0  0  0  0  0  0
   34.4720   35.6930   16.6770 H   0  0  0  0  0  0  0  0  0  0  0  0
   34.9300   39.9660   20.6810 H   0  0  0  0  0  0  0  0  0  0  0  0
   33.3910   40.8320   24.8220 H   0  0  0  0  0  0  0  0  0  0  0  0
   38.3240   37.2100   14.9120 F   0  0  0  0  0  0  0  0  0  0  0  0
   33.3140   38.0860   28.1940 C   0  0  0  0  0  0  0  0  0  0  0  0
   33.8590   38.5670   26.8430 C   0  0  0  0  0  0  0  0  0  0  0  0
   32.7180   39.2420   26.0550 C   0  0  0  0  0  0  0  0  0  0  0  0
   31.5340   38.2720   25.8970 C   0  0  0  0  0  0  0  0  0  0  0  0
   31.0950   37.7650   27.2780 C   0  0  0  0  0  0  0  0  0  0  0  0
   32.1900   37.1930   28.0280 O   0  0  0  0  0  0  0  0  0  0  0  0
   33.0000   38.9470   28.8270 H   0  0  0  0  0  0  0  0  0  0  0  0
   34.0530   37.4380   28.7220 H   0  0  0  0  0  0  0  0  0  0  0  0
   34.2590   37.6990   26.2660 H   0  0  0  0  0  0  0  0  0  0  0  0
   34.6890   39.2940   27.0140 H   0  0  0  0  0  0  0  0  0  0  0  0
   32.3630   40.1490   26.6330 H   0  0  0  0  0  0  0  0  0  0  0  0
   30.6790   38.7900   25.4010 H   0  0  0  0  0  0  0  0  0  0  0  0
   31.8290   37.3990   25.2630 H   0  0  0  0  0  0  0  0  0  0  0  0
   30.6390   38.5830   27.8800 H   0  0  0  0  0  0  0  0  0  0  0  0
   30.4020   36.8980   27.1760 H   0  0  0  0  0  0  0  0  0  0  0  0
   33.3870   34.9560   23.4770 C   0  0  0  0  0  0  0  0  0  0  0  0
   33.8330   33.9240   23.4740 H   0  0  0  0  0  0  0  0  0  0  0  0
   33.6180   35.4590   24.4580 H   0  0  0  0  0  0  0  0  0  0  0  0
   31.8580   34.8770   23.2930 C   0  0  0  0  0  0  0  0  0  0  0  0
   31.4490   35.9240   23.2670 H   0  0  0  0  0  0  0  0  0  0  0  0
   31.6010   34.3920   22.3200 H   0  0  0  0  0  0  0  0  0  0  0  0
   31.1640   34.1540   24.4520 C   0  0  0  0  0  0  0  0  0  0  0  0
   30.1330   34.6070   24.5510 H   0  0  0  0  0  0  0  0  0  0  0  0
   31.6820   34.4200   25.4130 H   0  0  0  0  0  0  0  0  0  0  0  0
   31.0170   32.4110   24.2860 S   0  0  0  0  0  0  0  0  0  0  0  0
   30.9620   31.7880   25.6350 O   0  0  0  0  0  0  0  0  0  0  0  0
   32.1190   31.8420   23.4870 O   0  0  0  0  0  0  0  0  0  0  0  0
   29.5080   32.1440   23.4710 C   0  0  0  0  0  0  0  0  0  0  0  0
   29.5240   32.4760   22.3960 H   0  0  0  0  0  0  0  0  0  0  0  0
   29.2140   31.0640   23.4510 H   0  0  0  0  0  0  0  0  0  0  0  0
   28.6550   32.6980   23.9290 H   0  0  0  0  0  0  0  0  0  0  0  0
  1  3  2  0  0  0  0
  1  7  1  0  0  0  0
  1 21  1  0  0  0  0
  2 12  1  0  0  0  0
  2 17  2  0  0  0  0
  2 18  1  0  0  0  0
  3 13  1  0  0  0  0
  3 14  1  0  0  0  0
  4 16  2  0  0  0  0
  4 19  1  0  0  0  0
  4 20  1  0  0  0  0
  5  6  1  0  0  0  0
  5 10  1  0  0  0  0
  5 11  2  0  0  0  0
  6 12  2  0  0  0  0
  6 22  1  0  0  0  0
  7  8  2  0  0  0  0
  7 27  1  0  0  0  0
  8  9  1  0  0  0  0
  8 23  1  0  0  0  0
  9 13  2  0  0  0  0
  9 24  1  0  0  0  0
 10 18  1  0  0  0  0
 10 19  2  0  0  0  0
 11 16  1  0  0  0  0
 11 25  1  0  0  0  0
 12 15  1  0  0  0  0
 13 15  1  0  0  0  0
 18 43  1  0  0  0  0
 20 26  1  0  0  0  0
 20 30  1  0  0  0  0
 28 29  1  0  0  0  0
 28 33  1  0  0  0  0
 28 34  1  0  0  0  0
 28 35  1  0  0  0  0
 29 30  1  0  0  0  0
 29 36  1  0  0  0  0
 29 37  1  0  0  0  0
 30 31  1  0  0  0  0
 30 38  1  0  0  0  0
 31 32  1  0  0  0  0
 31 39  1  0  0  0  0
 31 40  1  0  0  0  0
 32 33  1  0  0  0  0
 32 41  1  0  0  0  0
 32 42  1  0  0  0  0
 43 44  1  0  0  0  0
 43 45  1  0  0  0  0
 43 46  1  0  0  0  0
 46 47  1  0  0  0  0
 46 48  1  0  0  0  0
 46 49  1  0  0  0  0
 49 50  1  0  0  0  0
 49 51  1  0  0  0  0
 49 52  1  0  0  0  0
 52 53  2  0  0  0  0
 52 54  2  0  0  0  0
 52 55  1  0  0  0  0
 55 56  1  0  0  0  0
 55 57  1  0  0  0  0
 55 58  1  0  0  0  0
M  END
$$$$
