p38a_2o
 OpenBabel02232411163D
Structure written by MMmdl.
 55 58  0  0  0  0  0  0  0  0999 V2000
   36.3190   35.9120   15.9750 C   0  0  0  0  0  0  0  0  0  0  0  0
   34.5270   35.0360   21.5790 C   0  0  0  0  0  0  0  0  0  0  0  0
   35.6140   35.4830   17.0960 C   0  0  0  0  0  0  0  0  0  0  0  0
   34.0170   39.2150   23.9670 C   0  0  0  0  0  0  0  0  0  0  0  0
   34.6810   37.8960   21.6390 C   0  0  0  0  0  0  0  0  0  0  0  0
   35.0930   37.1970   20.4540 C   0  0  0  0  0  0  0  0  0  0  0  0
   37.6140   36.3970   16.2000 C   0  0  0  0  0  0  0  0  0  0  0  0
   38.2180   36.4260   17.4610 C   0  0  0  0  0  0  0  0  0  0  0  0
   37.4780   36.0160   18.5750 C   0  0  0  0  0  0  0  0  0  0  0  0
   34.2700   37.1850   22.8040 C   0  0  0  0  0  0  0  0  0  0  0  0
   34.6780   39.3180   21.7120 C   0  0  0  0  0  0  0  0  0  0  0  0
   35.0420   35.8460   20.4480 C   0  0  0  0  0  0  0  0  0  0  0  0
   36.1740   35.5460   18.3880 C   0  0  0  0  0  0  0  0  0  0  0  0
   34.3920   34.9820   16.9700 F   0  0  0  0  0  0  0  0  0  0  0  0
   35.3970   34.9850   19.4090 O   0  0  0  0  0  0  0  0  0  0  0  0
   34.3580   39.9820   22.8250 N   0  0  0  0  0  0  0  0  0  0  0  0
   34.3760   33.8330   21.5590 O   0  0  0  0  0  0  0  0  0  0  0  0
   34.2130   35.7760   22.7770 N   0  0  0  0  0  0  0  0  0  0  0  0
   33.9330   37.8370   23.9670 N   0  0  0  0  0  0  0  0  0  0  0  0
   33.8020   39.9560   25.1000 N   0  0  0  0  0  0  0  0  0  0  0  0
   35.8790   35.8970   14.9750 H   0  0  0  0  0  0  0  0  0  0  0  0
   35.4460   37.7850   19.6010 H   0  0  0  0  0  0  0  0  0  0  0  0
   39.2420   36.7920   17.5800 H   0  0  0  0  0  0  0  0  0  0  0  0
   37.9120   36.0860   19.5750 H   0  0  0  0  0  0  0  0  0  0  0  0
   34.9420   39.9130   20.8210 H   0  0  0  0  0  0  0  0  0  0  0  0
   33.8360   40.9950   25.0170 H   0  0  0  0  0  0  0  0  0  0  0  0
   38.2870   36.8860   15.1620 F   0  0  0  0  0  0  0  0  0  0  0  0
   33.6460   38.1300   28.4870 C   0  0  0  0  0  0  0  0  0  0  0  0
   34.2210   38.4870   27.1090 C   0  0  0  0  0  0  0  0  0  0  0  0
   33.2890   39.5040   26.4280 C   0  0  0  0  0  0  0  0  0  0  0  0
   31.8510   38.9530   26.3490 C   0  0  0  0  0  0  0  0  0  0  0  0
   31.3860   38.5710   27.7620 C   0  0  0  0  0  0  0  0  0  0  0  0
   32.2910   37.6360   28.3900 O   0  0  0  0  0  0  0  0  0  0  0  0
   33.6630   39.0160   29.1640 H   0  0  0  0  0  0  0  0  0  0  0  0
   34.1860   37.2650   28.9360 H   0  0  0  0  0  0  0  0  0  0  0  0
   34.3120   37.5660   26.4830 H   0  0  0  0  0  0  0  0  0  0  0  0
   35.2400   38.9280   27.2300 H   0  0  0  0  0  0  0  0  0  0  0  0
   33.2790   40.4550   27.0450 H   0  0  0  0  0  0  0  0  0  0  0  0
   31.1710   39.7280   25.9220 H   0  0  0  0  0  0  0  0  0  0  0  0
   31.8230   38.0580   25.6830 H   0  0  0  0  0  0  0  0  0  0  0  0
   31.3030   39.4740   28.4080 H   0  0  0  0  0  0  0  0  0  0  0  0
   30.4310   37.9990   27.7320 H   0  0  0  0  0  0  0  0  0  0  0  0
   33.8230   34.9890   24.0030 C   0  0  0  0  0  0  0  0  0  0  0  0
   34.3550   33.9980   23.9280 H   0  0  0  0  0  0  0  0  0  0  0  0
   34.1990   35.5450   24.9080 H   0  0  0  0  0  0  0  0  0  0  0  0
   32.3090   34.7900   24.0880 C   0  0  0  0  0  0  0  0  0  0  0  0
   31.8310   35.7750   24.3480 H   0  0  0  0  0  0  0  0  0  0  0  0
   31.9050   34.5210   23.0730 H   0  0  0  0  0  0  0  0  0  0  0  0
   31.7990   33.5510   25.2510 S   0  0  0  0  0  0  0  0  0  0  0  0
   30.3850   33.7690   25.6220 O   0  0  0  0  0  0  0  0  0  0  0  0
   32.6720   33.5470   26.4400 O   0  0  0  0  0  0  0  0  0  0  0  0
   31.9420   32.0510   24.3880 C   0  0  0  0  0  0  0  0  0  0  0  0
   33.0040   31.7840   24.1580 H   0  0  0  0  0  0  0  0  0  0  0  0
   31.5290   31.1870   24.9750 H   0  0  0  0  0  0  0  0  0  0  0  0
   31.3830   32.0580   23.4170 H   0  0  0  0  0  0  0  0  0  0  0  0
  1  3  2  0  0  0  0
  1  7  1  0  0  0  0
  1 21  1  0  0  0  0
  2 12  1  0  0  0  0
  2 17  2  0  0  0  0
  2 18  1  0  0  0  0
  3 13  1  0  0  0  0
  3 14  1  0  0  0  0
  4 16  2  0  0  0  0
  4 19  1  0  0  0  0
  4 20  1  0  0  0  0
  5  6  1  0  0  0  0
  5 10  1  0  0  0  0
  5 11  2  0  0  0  0
  6 12  2  0  0  0  0
  6 22  1  0  0  0  0
  7  8  2  0  0  0  0
  7 27  1  0  0  0  0
  8  9  1  0  0  0  0
  8 23  1  0  0  0  0
  9 13  2  0  0  0  0
  9 24  1  0  0  0  0
 10 18  1  0  0  0  0
 10 19  2  0  0  0  0
 11 16  1  0  0  0  0
 11 25  1  0  0  0  0
 12 15  1  0  0  0  0
 13 15  1  0  0  0  0
 18 43  1  0  0  0  0
 20 26  1  0  0  0  0
 20 30  1  0  0  0  0
 28 29  1  0  0  0  0
 28 33  1  0  0  0  0
 28 34  1  0  0  0  0
 28 35  1  0  0  0  0
 29 30  1  0  0  0  0
 29 36  1  0  0  0  0
 29 37  1  0  0  0  0
 30 31  1  0  0  0  0
 30 38  1  0  0  0  0
 31 32  1  0  0  0  0
 31 39  1  0  0  0  0
 31 40  1  0  0  0  0
 32 33  1  0  0  0  0
 32 41  1  0  0  0  0
 32 42  1  0  0  0  0
 43 44  1  0  0  0  0
 43 45  1  0  0  0  0
 43 46  1  0  0  0  0
 46 47  1  0  0  0  0
 46 48  1  0  0  0  0
 46 49  1  0  0  0  0
 49 50  2  0  0  0  0
 49 51  2  0  0  0  0
 49 52  1  0  0  0  0
 52 53  1  0  0  0  0
 52 54  1  0  0  0  0
 52 55  1  0  0  0  0
M  END
$$$$
