18639-1
 OpenBabel02232411163D
Structure written by MMmdl.
 48 49  0  0  0  0  0  0  0  0999 V2000
   23.1610   10.8200   29.0580 C   0  0  0  0  0  0  0  0  0  0  0  0
   23.4510   11.0550   30.5260 C   0  0  0  0  0  0  0  0  0  0  0  0
   22.1920   11.1630   31.2940 O   0  0  0  0  0  0  0  0  0  0  0  0
   21.5360   10.0330   31.6410 C   0  0  0  0  0  0  0  0  0  0  0  0
   22.0070    8.8360   31.2210 N   0  0  0  0  0  0  0  0  0  0  0  0
   21.2680    7.7090   31.5410 C   0  0  0  0  0  0  0  0  0  0  0  0
   20.1050    7.7600   32.3000 C   0  0  0  0  0  0  0  0  0  0  0  0
   19.6290    9.0190   32.7560 C   0  0  0  0  0  0  0  0  0  0  0  0
   18.4740    9.0760   33.4930 N   0  0  0  0  0  0  0  0  0  0  0  0
   20.3530   10.2080   32.4190 C   0  0  0  0  0  0  0  0  0  0  0  0
   19.9530   11.5130   32.7750 C   0  0  0  0  0  0  0  0  0  0  0  0
   19.6750   12.6110   33.0270 N   0  0  0  0  0  0  0  0  0  0  0  0
   21.8480    6.5440   30.9870 N   0  0  0  0  0  0  0  0  0  0  0  0
   21.2690    5.2610   30.9160 C   0  0  0  0  0  0  0  0  0  0  0  0
   20.1870    4.9970   31.3960 O   0  0  0  0  0  0  0  0  0  0  0  0
   22.1000    4.2690   30.1100 C   0  0  0  0  0  0  0  0  0  0  0  0
   23.4830    4.0350   30.6440 C   0  0  0  0  0  0  0  0  0  0  0  0
   24.5560    4.9150   30.2960 C   0  0  0  0  0  0  0  0  0  0  0  0
   24.1660    5.9510   29.4560 O   0  0  0  0  0  0  0  0  0  0  0  0
   25.0880    7.0660   29.2950 C   0  0  0  0  0  0  0  0  0  0  0  0
   25.8500    4.6990   30.7440 C   0  0  0  0  0  0  0  0  0  0  0  0
   26.1190    3.5960   31.5810 C   0  0  0  0  0  0  0  0  0  0  0  0
   27.4880    3.3660   32.0520 N   0  3  0  0  0  0  0  0  0  0  0  0
   27.6590    2.5720   32.9640 O   0  5  0  0  0  0  0  0  0  0  0  0
   28.4030    3.9720   31.5080 O   0  0  0  0  0  0  0  0  0  0  0  0
   25.0700    2.7170   31.9360 C   0  0  0  0  0  0  0  0  0  0  0  0
   23.7600    2.9440   31.4510 C   0  0  0  0  0  0  0  0  0  0  0  0
   25.4520    1.6940   32.7500 O   0  0  0  0  0  0  0  0  0  0  0  0
   24.4740    0.6490   33.0330 C   0  0  0  0  0  0  0  0  0  0  0  0
   24.1190   10.8600   28.4840 H   0  0  0  0  0  0  0  0  0  0  0  0
   22.4800   11.6000   28.6500 H   0  0  0  0  0  0  0  0  0  0  0  0
   22.6970    9.8190   28.8940 H   0  0  0  0  0  0  0  0  0  0  0  0
   23.8660   12.0740   30.7170 H   0  0  0  0  0  0  0  0  0  0  0  0
   24.0870   10.2520   30.9630 H   0  0  0  0  0  0  0  0  0  0  0  0
   19.5430    6.8540   32.5330 H   0  0  0  0  0  0  0  0  0  0  0  0
   17.9720    8.2080   33.7640 H   0  0  0  0  0  0  0  0  0  0  0  0
   18.0780    9.9650   33.7960 H   0  0  0  0  0  0  0  0  0  0  0  0
   22.7620    6.6990   30.4900 H   0  0  0  0  0  0  0  0  0  0  0  0
   21.5460    3.2930   30.0720 H   0  0  0  0  0  0  0  0  0  0  0  0
   22.1810    4.6710   29.0600 H   0  0  0  0  0  0  0  0  0  0  0  0
   25.4090    7.4560   30.2850 H   0  0  0  0  0  0  0  0  0  0  0  0
   25.9430    6.7410   28.6660 H   0  0  0  0  0  0  0  0  0  0  0  0
   24.4440    7.8050   28.7640 H   0  0  0  0  0  0  0  0  0  0  0  0
   26.6720    5.3630   30.4510 H   0  0  0  0  0  0  0  0  0  0  0  0
   22.9620    2.2430   31.7080 H   0  0  0  0  0  0  0  0  0  0  0  0
   25.0850   -0.0690   33.6300 H   0  0  0  0  0  0  0  0  0  0  0  0
   23.6390    1.0620   33.6380 H   0  0  0  0  0  0  0  0  0  0  0  0
   24.1250    0.1840   32.0850 H   0  0  0  0  0  0  0  0  0  0  0  0
  1  2  1  0  0  0  0
  1 30  1  0  0  0  0
  1 31  1  0  0  0  0
  1 32  1  0  0  0  0
  2  3  1  0  0  0  0
  2 33  1  0  0  0  0
  2 34  1  0  0  0  0
  3  4  1  0  0  0  0
  4 10  2  0  0  0  0
  4  5  1  0  0  0  0
  5  6  2  0  0  0  0
  6  7  1  0  0  0  0
  6 13  1  0  0  0  0
  7  8  2  0  0  0  0
  7 35  1  0  0  0  0
  8  9  1  0  0  0  0
  8 10  1  0  0  0  0
  9 36  1  0  0  0  0
  9 37  1  0  0  0  0
 10 11  1  0  0  0  0
 11 12  3  0  0  0  0
 13 14  1  0  0  0  0
 13 38  1  0  0  0  0
 14 15  2  0  0  0  0
 14 16  1  0  0  0  0
 16 17  1  0  0  0  0
 16 39  1  0  0  0  0
 16 40  1  0  0  0  0
 17 27  2  0  0  0  0
 17 18  1  0  0  0  0
 18 19  1  0  0  0  0
 18 21  2  0  0  0  0
 19 20  1  0  0  0  0
 20 41  1  0  0  0  0
 20 42  1  0  0  0  0
 20 43  1  0  0  0  0
 21 22  1  0  0  0  0
 21 44  1  0  0  0  0
 22 23  1  0  0  0  0
 22 26  2  0  0  0  0
 23 24  1  0  0  0  0
 23 25  2  0  0  0  0
 26 27  1  0  0  0  0
 26 28  1  0  0  0  0
 27 45  1  0  0  0  0
 28 29  1  0  0  0  0
 29 46  1  0  0  0  0
 29 47  1  0  0  0  0
 29 48  1  0  0  0  0
M  CHG  2  23   1  24  -1
M  END
$$$$
