23483
 OpenBabel02232411173D
Structure written by MMmdl.
 57 60  0  0  0  0  0  0  0  0999 V2000
   42.5720   17.8930   12.4900 O   0  0  0  0  0  0  0  0  0  0  0  0
   41.4440   17.5650   12.8750 C   0  0  0  0  0  0  0  0  0  0  0  0
   40.4240   18.2880   12.8750 O   0  5  0  0  0  0  0  0  0  0  0  0
   41.2210   16.0990   13.3690 C   0  0  0  0  0  0  0  0  0  0  0  0
   42.5900   15.6230   13.5840 O   0  0  0  0  0  0  0  0  0  0  0  0
   42.7640   14.8570   14.6900 C   0  0  0  0  0  0  0  0  0  0  0  0
   42.1770   13.5480   14.8820 C   0  0  0  0  0  0  0  0  0  0  0  0
   40.8900   12.8280   13.6710 Br  0  0  0  0  0  0  0  0  0  0  0  0
   42.6270   12.8780   15.9880 C   0  0  0  0  0  0  0  0  0  0  0  0
   42.2580   11.5680   16.4830 C   0  0  0  0  0  0  0  0  0  0  0  0
   43.2140   10.6840   17.0330 C   0  0  0  0  0  0  0  0  0  0  0  0
   42.8300    9.4090   17.4340 C   0  0  0  0  0  0  0  0  0  0  0  0
   41.5110    8.9590   17.2800 C   0  0  0  0  0  0  0  0  0  0  0  0
   40.5530    9.8330   16.7490 C   0  0  0  0  0  0  0  0  0  0  0  0
   39.1560    9.5300   16.5780 N   0  0  0  0  0  0  0  0  0  0  0  0
   38.6130    8.2340   17.0620 C   0  0  0  0  0  0  0  0  0  0  0  0
   37.1370    8.4810   17.4720 C   0  0  0  0  0  0  0  0  0  0  0  0
   36.5130    7.1670   17.9750 C   0  0  0  0  0  0  0  0  0  0  0  0
   36.5420    6.1690   16.8570 N   0  0  0  0  0  0  0  0  0  0  0  0
   35.3120    4.9900   16.8130 S   0  0  0  0  0  0  0  0  0  0  0  0
   35.3170    4.1250   18.0050 O   0  0  0  0  0  0  0  0  0  0  0  0
   34.0470    5.7380   16.6360 O   0  0  0  0  0  0  0  0  0  0  0  0
   35.5830    4.0430   15.3750 C   0  0  0  0  0  0  0  0  0  0  0  0
   35.6350    2.6470   15.4480 C   0  0  0  0  0  0  0  0  0  0  0  0
   35.7640    1.8880   14.2780 C   0  0  0  0  0  0  0  0  0  0  0  0
   35.8510    2.5210   13.0350 C   0  0  0  0  0  0  0  0  0  0  0  0
   35.8230    3.9180   12.9640 C   0  0  0  0  0  0  0  0  0  0  0  0
   35.6930    4.6780   14.1310 C   0  0  0  0  0  0  0  0  0  0  0  0
   37.9480    5.8310   16.4790 C   0  0  0  0  0  0  0  0  0  0  0  0
   38.6760    7.1060   15.9980 C   0  0  0  0  0  0  0  0  0  0  0  0
   40.9250   11.1470   16.3910 C   0  0  0  0  0  0  0  0  0  0  0  0
   43.8140   13.8720   16.7950 S   0  0  0  0  0  0  0  0  0  0  0  0
   43.6490   15.2010   15.6800 C   0  0  0  0  0  0  0  0  0  0  0  0
   44.4400   16.4910   15.8980 C   0  0  0  0  0  0  0  0  0  0  0  0
   45.5550   16.3340   16.4450 O   0  0  0  0  0  0  0  0  0  0  0  0
   43.9700   17.5590   15.5130 O   0  5  0  0  0  0  0  0  0  0  0  0
   40.7830   15.4600   12.5750 H   0  0  0  0  0  0  0  0  0  0  0  0
   40.6100   16.0450   14.2940 H   0  0  0  0  0  0  0  0  0  0  0  0
   44.2590   10.9780   17.1420 H   0  0  0  0  0  0  0  0  0  0  0  0
   43.5610    8.7230   17.8690 H   0  0  0  0  0  0  0  0  0  0  0  0
   41.2630    7.9390   17.5650 H   0  0  0  0  0  0  0  0  0  0  0  0
   38.8330    9.7300   15.6170 H   0  0  0  0  0  0  0  0  0  0  0  0
   39.1780    7.8960   17.9710 H   0  0  0  0  0  0  0  0  0  0  0  0
   37.1000    9.2340   18.2940 H   0  0  0  0  0  0  0  0  0  0  0  0
   36.5610    8.8530   16.5930 H   0  0  0  0  0  0  0  0  0  0  0  0
   37.0970    6.7860   18.8590 H   0  0  0  0  0  0  0  0  0  0  0  0
   35.4590    7.3510   18.3000 H   0  0  0  0  0  0  0  0  0  0  0  0
   35.5850    2.1150   16.4070 H   0  0  0  0  0  0  0  0  0  0  0  0
   35.8050    0.7960   14.3350 H   0  0  0  0  0  0  0  0  0  0  0  0
   35.9510    1.9240   12.1240 H   0  0  0  0  0  0  0  0  0  0  0  0
   35.9150    4.4090   11.9910 H   0  0  0  0  0  0  0  0  0  0  0  0
   35.6980    5.7740   14.0510 H   0  0  0  0  0  0  0  0  0  0  0  0
   38.5100    5.3920   17.3490 H   0  0  0  0  0  0  0  0  0  0  0  0
   37.9510    5.0870   15.6420 H   0  0  0  0  0  0  0  0  0  0  0  0
   38.2070    7.4480   15.0460 H   0  0  0  0  0  0  0  0  0  0  0  0
   39.7400    6.8370   15.7930 H   0  0  0  0  0  0  0  0  0  0  0  0
   40.1390   11.8270   16.0500 H   0  0  0  0  0  0  0  0  0  0  0  0
  1  2  2  0  0  0  0
  2  3  1  0  0  0  0
  2  4  1  0  0  0  0
  4  5  1  0  0  0  0
  4 37  1  0  0  0  0
  4 38  1  0  0  0  0
  5  6  1  0  0  0  0
  6 33  2  0  0  0  0
  6  7  1  0  0  0  0
  7  8  1  0  0  0  0
  7  9  2  0  0  0  0
  9 10  1  0  0  0  0
  9 32  1  0  0  0  0
 10 31  2  0  0  0  0
 10 11  1  0  0  0  0
 11 12  2  0  0  0  0
 11 39  1  0  0  0  0
 12 13  1  0  0  0  0
 12 40  1  0  0  0  0
 13 14  2  0  0  0  0
 13 41  1  0  0  0  0
 14 15  1  0  0  0  0
 14 31  1  0  0  0  0
 15 16  1  0  0  0  0
 15 42  1  0  0  0  0
 16 30  1  0  0  0  0
 16 17  1  0  0  0  0
 16 43  1  0  0  0  0
 17 18  1  0  0  0  0
 17 44  1  0  0  0  0
 17 45  1  0  0  0  0
 18 19  1  0  0  0  0
 18 46  1  0  0  0  0
 18 47  1  0  0  0  0
 19 20  1  0  0  0  0
 19 29  1  0  0  0  0
 20 21  2  0  0  0  0
 20 22  2  0  0  0  0
 20 23  1  0  0  0  0
 23 28  2  0  0  0  0
 23 24  1  0  0  0  0
 24 25  2  0  0  0  0
 24 48  1  0  0  0  0
 25 26  1  0  0  0  0
 25 49  1  0  0  0  0
 26 27  2  0  0  0  0
 26 50  1  0  0  0  0
 27 28  1  0  0  0  0
 27 51  1  0  0  0  0
 28 52  1  0  0  0  0
 29 30  1  0  0  0  0
 29 53  1  0  0  0  0
 29 54  1  0  0  0  0
 30 55  1  0  0  0  0
 30 56  1  0  0  0  0
 31 57  1  0  0  0  0
 32 33  1  0  0  0  0
 33 34  1  0  0  0  0
 34 35  2  0  0  0  0
 34 36  1  0  0  0  0
M  CHG  2   3  -1  36  -1
M  END
$$$$
