p38a_2s
 OpenBabel02232411163D
Structure written by MMmdl.
 54 57  0  0  1  0  0  0  0  0999 V2000
   38.2960   36.5270   17.1770 C   0  0  0  0  0  0  0  0  0  0  0  0
   34.4570   35.0260   21.1860 C   0  0  0  0  0  0  0  0  0  0  0  0
   37.5140   36.0580   18.2300 C   0  0  0  0  0  0  0  0  0  0  0  0
   33.8450   39.1130   23.7090 C   0  0  0  0  0  0  0  0  0  0  0  0
   34.5700   37.9100   21.3360 C   0  0  0  0  0  0  0  0  0  0  0  0
   35.0240   37.2470   20.1450 C   0  0  0  0  0  0  0  0  0  0  0  0
   37.6490   36.6860   15.9440 C   0  0  0  0  0  0  0  0  0  0  0  0
   36.3030   36.3770   15.7330 C   0  0  0  0  0  0  0  0  0  0  0  0
   35.5440   35.8910   16.8030 C   0  0  0  0  0  0  0  0  0  0  0  0
   34.1060   37.1410   22.4440 C   0  0  0  0  0  0  0  0  0  0  0  0
   34.5840   39.3220   21.4950 C   0  0  0  0  0  0  0  0  0  0  0  0
   35.0030   35.8950   20.1060 C   0  0  0  0  0  0  0  0  0  0  0  0
   36.1560   35.7200   18.0470 C   0  0  0  0  0  0  0  0  0  0  0  0
   38.0410   35.9280   19.4400 F   0  0  0  0  0  0  0  0  0  0  0  0
   35.4480   35.0740   19.0700 O   0  0  0  0  0  0  0  0  0  0  0  0
   34.2440   39.9370   22.6390 N   0  0  0  0  0  0  0  0  0  0  0  0
   34.3510   33.8210   21.1230 O   0  0  0  0  0  0  0  0  0  0  0  0
   33.9910   35.7400   22.3460 N   0  0  0  0  0  0  0  0  0  0  0  0
   33.7610   37.7340   23.6280 N   0  0  0  0  0  0  0  0  0  0  0  0
   33.4710   39.7090   24.8900 N   0  0  0  0  0  0  0  0  0  0  0  0
   39.3470   36.7960   17.3140 H   0  0  0  0  0  0  0  0  0  0  0  0
   35.3820   37.8620   19.3170 H   0  0  0  0  0  0  0  0  0  0  0  0
   35.8330   36.5250   14.7590 H   0  0  0  0  0  0  0  0  0  0  0  0
   34.4820   35.6660   16.6590 H   0  0  0  0  0  0  0  0  0  0  0  0
   34.8850   39.9660   20.6520 H   0  0  0  0  0  0  0  0  0  0  0  0
   33.6180   40.7260   25.0290 H   0  0  0  0  0  0  0  0  0  0  0  0
   38.3450   37.1960   14.9310 F   0  0  0  0  0  0  0  0  0  0  0  0
   31.9970   38.8390   28.3090 C   0  0  0  0  0  0  0  0  0  0  0  0
   32.2060   39.6370   27.0140 C   0  0  0  0  0  0  0  0  0  0  0  0
   33.2240   38.8980   26.1230 C   0  0  0  0  0  0  0  0  0  0  0  0
   34.5380   38.6630   26.8980 C   0  0  0  0  0  0  0  0  0  0  0  0
   34.2240   37.8910   28.1840 C   0  0  0  0  0  0  0  0  0  0  0  0
   33.2430   38.5820   28.9940 O   0  0  0  0  0  0  0  0  0  0  0  0
   31.4920   37.8690   28.0950 H   0  0  0  0  0  0  0  0  0  0  0  0
   31.4310   39.4350   29.0620 H   0  0  0  0  0  0  0  0  0  0  0  0
   32.5770   40.6620   27.2530 H   0  0  0  0  0  0  0  0  0  0  0  0
   31.2360   39.7330   26.4710 H   0  0  0  0  0  0  0  0  0  0  0  0
   32.7850   37.9060   25.8160 H   0  0  0  0  0  0  0  0  0  0  0  0
   35.2470   38.0650   26.2780 H   0  0  0  0  0  0  0  0  0  0  0  0
   35.0180   39.6410   27.1390 H   0  0  0  0  0  0  0  0  0  0  0  0
   33.8460   36.8660   27.9460 H   0  0  0  0  0  0  0  0  0  0  0  0
   35.1050   37.8600   28.8650 H   0  0  0  0  0  0  0  0  0  0  0  0
   33.4270   34.9720   23.4970 C   0  0  0  0  0  0  0  0  0  0  0  0
   32.4890   35.4940   23.8490 H   0  0  0  0  0  0  0  0  0  0  0  0
   33.1460   33.9420   23.1430 H   0  0  0  0  0  0  0  0  0  0  0  0
   34.4150   34.8590   24.6860 C   0  0  2  0  0  0  0  0  0  0  0  0
   35.5770   34.1310   24.2890 O   0  0  0  0  0  0  0  0  0  0  0  0
   35.4150   33.1470   24.3470 H   0  0  0  0  0  0  0  0  0  0  0  0
   33.7240   34.2180   25.9130 C   0  0  0  0  0  0  0  0  0  0  0  0
   33.8710   33.1140   25.9350 H   0  0  0  0  0  0  0  0  0  0  0  0
   32.6400   34.4790   25.9680 H   0  0  0  0  0  0  0  0  0  0  0  0
   34.8420   35.8520   24.9770 H   0  0  0  0  0  0  0  0  0  0  0  0
   34.2350   34.7830   27.1270 O   0  0  0  0  0  0  0  0  0  0  0  0
   35.1990   34.5110   27.2460 H   0  0  0  0  0  0  0  0  0  0  0  0
  1  3  2  0  0  0  0
  1  7  1  0  0  0  0
  1 21  1  0  0  0  0
  2 12  1  0  0  0  0
  2 17  2  0  0  0  0
  2 18  1  0  0  0  0
  3 13  1  0  0  0  0
  3 14  1  0  0  0  0
  4 16  2  0  0  0  0
  4 19  1  0  0  0  0
  4 20  1  0  0  0  0
  5  6  1  0  0  0  0
  5 10  1  0  0  0  0
  5 11  2  0  0  0  0
  6 12  2  0  0  0  0
  6 22  1  0  0  0  0
  7  8  2  0  0  0  0
  7 27  1  0  0  0  0
  8  9  1  0  0  0  0
  8 23  1  0  0  0  0
  9 13  2  0  0  0  0
  9 24  1  0  0  0  0
 10 18  1  0  0  0  0
 10 19  2  0  0  0  0
 11 16  1  0  0  0  0
 11 25  1  0  0  0  0
 12 15  1  0  0  0  0
 13 15  1  0  0  0  0
 18 43  1  0  0  0  0
 20 26  1  0  0  0  0
 20 30  1  0  0  0  0
 28 29  1  0  0  0  0
 28 33  1  0  0  0  0
 28 34  1  0  0  0  0
 28 35  1  0  0  0  0
 29 30  1  0  0  0  0
 29 36  1  0  0  0  0
 29 37  1  0  0  0  0
 30 31  1  0  0  0  0
 30 38  1  0  0  0  0
 31 32  1  0  0  0  0
 31 39  1  0  0  0  0
 31 40  1  0  0  0  0
 32 33  1  0  0  0  0
 32 41  1  0  0  0  0
 32 42  1  0  0  0  0
 43 44  1  0  0  0  0
 43 45  1  0  0  0  0
 43 46  1  0  0  0  0
 46 47  1  0  0  0  0
 46 49  1  0  0  0  0
 46 52  1  1  0  0  0
 47 48  1  0  0  0  0
 49 50  1  0  0  0  0
 49 51  1  0  0  0  0
 49 53  1  0  0  0  0
 53 54  1  0  0  0  0
M  END
$$$$
