p38a_2u
 OpenBabel02232411163D
Structure written by MMmdl.
 64 68  0  0  0  0  0  0  0  0999 V2000
   38.2840   36.5330   17.1820 C   0  0  0  0  0  0  0  0  0  0  0  0
   34.5390   35.0810   21.2710 C   0  0  0  0  0  0  0  0  0  0  0  0
   37.5090   36.0810   18.2470 C   0  0  0  0  0  0  0  0  0  0  0  0
   33.9950   39.1750   23.7900 C   0  0  0  0  0  0  0  0  0  0  0  0
   34.6470   37.9560   21.4070 C   0  0  0  0  0  0  0  0  0  0  0  0
   35.0620   37.2960   20.2000 C   0  0  0  0  0  0  0  0  0  0  0  0
   37.6300   36.6730   15.9500 C   0  0  0  0  0  0  0  0  0  0  0  0
   36.2830   36.3590   15.7530 C   0  0  0  0  0  0  0  0  0  0  0  0
   35.5300   35.8930   16.8360 C   0  0  0  0  0  0  0  0  0  0  0  0
   34.2410   37.1890   22.5380 C   0  0  0  0  0  0  0  0  0  0  0  0
   34.6480   39.3710   21.5480 C   0  0  0  0  0  0  0  0  0  0  0  0
   35.0410   35.9440   20.1650 C   0  0  0  0  0  0  0  0  0  0  0  0
   36.1490   35.7450   18.0800 C   0  0  0  0  0  0  0  0  0  0  0  0
   38.0490   35.9640   19.4530 F   0  0  0  0  0  0  0  0  0  0  0  0
   35.4380   35.1200   19.1130 O   0  0  0  0  0  0  0  0  0  0  0  0
   34.3390   39.9940   22.6950 N   0  0  0  0  0  0  0  0  0  0  0  0
   34.4400   33.8750   21.1940 O   0  0  0  0  0  0  0  0  0  0  0  0
   34.1480   35.7810   22.4650 N   0  0  0  0  0  0  0  0  0  0  0  0
   33.9300   37.7950   23.7270 N   0  0  0  0  0  0  0  0  0  0  0  0
   33.6500   39.7920   24.9680 N   0  0  0  0  0  0  0  0  0  0  0  0
   39.3370   36.8000   17.3090 H   0  0  0  0  0  0  0  0  0  0  0  0
   35.3920   37.9090   19.3590 H   0  0  0  0  0  0  0  0  0  0  0  0
   35.8080   36.4860   14.7780 H   0  0  0  0  0  0  0  0  0  0  0  0
   34.4680   35.6630   16.7040 H   0  0  0  0  0  0  0  0  0  0  0  0
   34.9090   40.0040   20.6850 H   0  0  0  0  0  0  0  0  0  0  0  0
   33.7950   40.8140   25.0780 H   0  0  0  0  0  0  0  0  0  0  0  0
   38.3190   37.1700   14.9260 F   0  0  0  0  0  0  0  0  0  0  0  0
   32.2960   39.1350   28.4820 C   0  0  0  0  0  0  0  0  0  0  0  0
   32.4830   39.8510   27.1380 C   0  0  0  0  0  0  0  0  0  0  0  0
   33.4140   39.0220   26.2300 C   0  0  0  0  0  0  0  0  0  0  0  0
   34.7450   38.7270   26.9540 C   0  0  0  0  0  0  0  0  0  0  0  0
   34.4600   38.0630   28.3070 C   0  0  0  0  0  0  0  0  0  0  0  0
   33.5620   38.8540   29.1190 O   0  0  0  0  0  0  0  0  0  0  0  0
   31.7350   38.1810   28.3500 H   0  0  0  0  0  0  0  0  0  0  0  0
   31.8040   39.8040   29.2260 H   0  0  0  0  0  0  0  0  0  0  0  0
   32.9230   40.8620   27.3140 H   0  0  0  0  0  0  0  0  0  0  0  0
   31.4950   39.9840   26.6380 H   0  0  0  0  0  0  0  0  0  0  0  0
   32.9080   38.0500   25.9650 H   0  0  0  0  0  0  0  0  0  0  0  0
   35.3670   38.0340   26.3370 H   0  0  0  0  0  0  0  0  0  0  0  0
   35.3170   39.6730   27.1030 H   0  0  0  0  0  0  0  0  0  0  0  0
   34.0220   37.0480   28.1650 H   0  0  0  0  0  0  0  0  0  0  0  0
   35.3780   38.0280   28.9380 H   0  0  0  0  0  0  0  0  0  0  0  0
   34.3390   33.6420   25.6780 C   0  0  0  0  0  0  0  0  0  0  0  0
   34.8120   34.2110   24.3180 C   0  0  0  0  0  0  0  0  0  0  0  0
   33.6650   35.0160   23.6820 C   0  0  0  0  0  0  0  0  0  0  0  0
   32.4620   34.1100   23.3440 C   0  0  0  0  0  0  0  0  0  0  0  0
   32.3470   32.9440   24.3540 C   0  0  0  0  0  0  0  0  0  0  0  0
   34.5370   34.4030   26.4810 H   0  0  0  0  0  0  0  0  0  0  0  0
   34.9430   32.7170   25.8850 H   0  0  0  0  0  0  0  0  0  0  0  0
   35.1200   33.3690   23.6550 H   0  0  0  0  0  0  0  0  0  0  0  0
   35.6970   34.8620   24.5040 H   0  0  0  0  0  0  0  0  0  0  0  0
   33.3180   35.7730   24.4490 H   0  0  0  0  0  0  0  0  0  0  0  0
   31.5330   34.7270   23.3740 H   0  0  0  0  0  0  0  0  0  0  0  0
   32.5540   33.6620   22.3260 H   0  0  0  0  0  0  0  0  0  0  0  0
   31.2660   32.6580   24.4470 H   0  0  0  0  0  0  0  0  0  0  0  0
   32.9310   32.0600   23.9770 H   0  0  0  0  0  0  0  0  0  0  0  0
   32.8720   33.3530   25.6900 N   0  0  0  0  0  0  0  0  0  0  0  0
   32.1980   32.6460   27.1020 S   0  0  0  0  0  0  0  0  0  0  0  0
   30.8430   32.1670   26.7540 O   0  0  0  0  0  0  0  0  0  0  0  0
   32.1680   33.6560   28.1750 O   0  0  0  0  0  0  0  0  0  0  0  0
   33.2210   31.3230   27.5670 C   0  0  0  0  0  0  0  0  0  0  0  0
   33.4870   30.6600   26.7020 H   0  0  0  0  0  0  0  0  0  0  0  0
   34.1830   31.6580   28.0330 H   0  0  0  0  0  0  0  0  0  0  0  0
   32.7270   30.6570   28.3250 H   0  0  0  0  0  0  0  0  0  0  0  0
  1  3  2  0  0  0  0
  1  7  1  0  0  0  0
  1 21  1  0  0  0  0
  2 12  1  0  0  0  0
  2 17  2  0  0  0  0
  2 18  1  0  0  0  0
  3 13  1  0  0  0  0
  3 14  1  0  0  0  0
  4 16  2  0  0  0  0
  4 19  1  0  0  0  0
  4 20  1  0  0  0  0
  5  6  1  0  0  0  0
  5 10  1  0  0  0  0
  5 11  2  0  0  0  0
  6 12  2  0  0  0  0
  6 22  1  0  0  0  0
  7  8  2  0  0  0  0
  7 27  1  0  0  0  0
  8  9  1  0  0  0  0
  8 23  1  0  0  0  0
  9 13  2  0  0  0  0
  9 24  1  0  0  0  0
 10 18  1  0  0  0  0
 10 19  2  0  0  0  0
 11 16  1  0  0  0  0
 11 25  1  0  0  0  0
 12 15  1  0  0  0  0
 13 15  1  0  0  0  0
 18 45  1  0  0  0  0
 20 26  1  0  0  0  0
 20 30  1  0  0  0  0
 28 29  1  0  0  0  0
 28 33  1  0  0  0  0
 28 34  1  0  0  0  0
 28 35  1  0  0  0  0
 29 30  1  0  0  0  0
 29 36  1  0  0  0  0
 29 37  1  0  0  0  0
 30 31  1  0  0  0  0
 30 38  1  0  0  0  0
 31 32  1  0  0  0  0
 31 39  1  0  0  0  0
 31 40  1  0  0  0  0
 32 33  1  0  0  0  0
 32 41  1  0  0  0  0
 32 42  1  0  0  0  0
 43 44  1  0  0  0  0
 43 48  1  0  0  0  0
 43 49  1  0  0  0  0
 43 57  1  0  0  0  0
 44 45  1  0  0  0  0
 44 50  1  0  0  0  0
 44 51  1  0  0  0  0
 45 46  1  0  0  0  0
 45 52  1  0  0  0  0
 46 47  1  0  0  0  0
 46 53  1  0  0  0  0
 46 54  1  0  0  0  0
 47 55  1  0  0  0  0
 47 56  1  0  0  0  0
 47 57  1  0  0  0  0
 57 58  1  0  0  0  0
 58 59  2  0  0  0  0
 58 60  2  0  0  0  0
 58 61  1  0  0  0  0
 61 62  1  0  0  0  0
 61 63  1  0  0  0  0
 61 64  1  0  0  0  0
M  END
$$$$
