27
 OpenBabel02232411163D
Structure written by MMmdl.
 38 40  0  0  0  0  0  0  0  0999 V2000
    3.4000  -48.2180    7.1040 O   0  0  0  0  0  0  0  0  0  0  0  0
    3.0070  -49.1880    6.4410 C   0  0  0  0  0  0  0  0  0  0  0  0
    3.7160  -50.0090    5.8260 O   0  5  0  0  0  0  0  0  0  0  0  0
    1.4930  -49.4650    6.3660 C   0  0  0  0  0  0  0  0  0  0  0  0
   -0.3760  -50.7800    6.5270 C   0  0  0  0  0  0  0  0  0  0  0  0
   -1.3050  -51.8110    6.7520 C   0  0  0  0  0  0  0  0  0  0  0  0
   -2.6340  -51.5490    6.4540 C   0  0  0  0  0  0  0  0  0  0  0  0
   -3.0380  -50.2940    5.9400 C   0  0  0  0  0  0  0  0  0  0  0  0
   -2.1250  -49.2720    5.7180 C   0  0  0  0  0  0  0  0  0  0  0  0
   -0.7700  -49.4910    6.0160 C   0  0  0  0  0  0  0  0  0  0  0  0
    0.4270  -48.6790    5.9420 C   0  0  0  0  0  0  0  0  0  0  0  0
    0.4320  -47.2620    5.4930 C   0  0  0  0  0  0  0  0  0  0  0  0
    0.3300  -46.2610    6.6590 C   0  0  0  0  0  0  0  0  0  0  0  0
   -1.0000  -46.3150    7.4090 C   0  0  0  0  0  0  0  0  0  0  0  0
   -1.9710  -45.7490    6.4530 O   0  0  0  0  0  0  0  0  0  0  0  0
   -3.2260  -45.4530    6.8970 C   0  0  0  0  0  0  0  0  0  0  0  0
   -3.7790  -45.8750    8.1180 C   0  0  0  0  0  0  0  0  0  0  0  0
   -5.0830  -45.4830    8.4340 C   0  0  0  0  0  0  0  0  0  0  0  0
   -5.8260  -44.6890    7.5590 C   0  0  0  0  0  0  0  0  0  0  0  0
   -5.2670  -44.2880    6.3350 C   0  0  0  0  0  0  0  0  0  0  0  0
   -3.9740  -44.6630    5.9910 C   0  0  0  0  0  0  0  0  0  0  0  0
   -1.0010  -52.7790    7.1490 H   0  0  0  0  0  0  0  0  0  0  0  0
   -3.3900  -52.3170    6.6200 H   0  0  0  0  0  0  0  0  0  0  0  0
   -4.0940  -50.1380    5.7170 H   0  0  0  0  0  0  0  0  0  0  0  0
   -2.4650  -48.3130    5.3220 H   0  0  0  0  0  0  0  0  0  0  0  0
   -0.4480  -47.0950    4.8190 H   0  0  0  0  0  0  0  0  0  0  0  0
    1.3630  -47.0330    4.9210 H   0  0  0  0  0  0  0  0  0  0  0  0
    0.4500  -45.2270    6.2570 H   0  0  0  0  0  0  0  0  0  0  0  0
    1.1420  -46.4680    7.3970 H   0  0  0  0  0  0  0  0  0  0  0  0
   -0.9930  -45.6540    8.3020 H   0  0  0  0  0  0  0  0  0  0  0  0
   -1.3360  -47.3490    7.6340 H   0  0  0  0  0  0  0  0  0  0  0  0
   -3.2330  -46.5080    8.8130 H   0  0  0  0  0  0  0  0  0  0  0  0
   -3.5400  -44.3620    5.0420 H   0  0  0  0  0  0  0  0  0  0  0  0
    1.0130  -50.7380    6.7320 N   0  0  0  0  0  0  0  0  0  0  0  0
    1.5520  -51.5280    7.0690 H   0  0  0  0  0  0  0  0  0  0  0  0
   -5.8570  -43.6780    5.6490 H   0  0  0  0  0  0  0  0  0  0  0  0
   -6.8400  -44.3890    7.8160 H   0  0  0  0  0  0  0  0  0  0  0  0
   -5.5310  -45.8050    9.3770 H   0  0  0  0  0  0  0  0  0  0  0  0
  1  2  2  0  0  0  0
  2  3  1  0  0  0  0
  2  4  1  0  0  0  0
  4 11  2  0  0  0  0
  4 34  1  0  0  0  0
  5  6  2  0  0  0  0
  5 10  1  0  0  0  0
  5 34  1  0  0  0  0
  6  7  1  0  0  0  0
  6 22  1  0  0  0  0
  7  8  2  0  0  0  0
  7 23  1  0  0  0  0
  8  9  1  0  0  0  0
  8 24  1  0  0  0  0
  9 10  2  0  0  0  0
  9 25  1  0  0  0  0
 10 11  1  0  0  0  0
 11 12  1  0  0  0  0
 12 26  1  0  0  0  0
 12 27  1  0  0  0  0
 12 13  1  0  0  0  0
 13 14  1  0  0  0  0
 13 28  1  0  0  0  0
 13 29  1  0  0  0  0
 14 15  1  0  0  0  0
 14 30  1  0  0  0  0
 14 31  1  0  0  0  0
 15 16  1  0  0  0  0
 16 17  2  0  0  0  0
 16 21  1  0  0  0  0
 17 18  1  0  0  0  0
 17 32  1  0  0  0  0
 18 19  2  0  0  0  0
 18 38  1  0  0  0  0
 19 20  1  0  0  0  0
 19 37  1  0  0  0  0
 20 21  2  0  0  0  0
 20 36  1  0  0  0  0
 21 33  1  0  0  0  0
 34 35  1  0  0  0  0
M  CHG  1   3  -1
M  END
$$$$
