p38a_2aa
 OpenBabel02232411163D
Structure written by MMmdl.
 43 45  0  0  0  0  0  0  0  0999 V2000
   38.2480   36.5070   17.1950 C   0  0  0  0  0  0  0  0  0  0  0  0
   34.5050   35.1450   21.2500 C   0  0  0  0  0  0  0  0  0  0  0  0
   37.4430   36.0620   18.2390 C   0  0  0  0  0  0  0  0  0  0  0  0
   33.9990   39.2720   23.7110 C   0  0  0  0  0  0  0  0  0  0  0  0
   33.2950   39.2900   26.1190 C   0  0  0  0  0  0  0  0  0  0  0  0
   34.5630   38.0270   21.3240 C   0  0  0  0  0  0  0  0  0  0  0  0
   34.9470   37.3440   20.1190 C   0  0  0  0  0  0  0  0  0  0  0  0
   37.6210   36.6700   15.9520 C   0  0  0  0  0  0  0  0  0  0  0  0
   36.2730   36.3820   15.7250 C   0  0  0  0  0  0  0  0  0  0  0  0
   35.4880   35.9230   16.7880 C   0  0  0  0  0  0  0  0  0  0  0  0
   34.2390   37.2780   22.4940 C   0  0  0  0  0  0  0  0  0  0  0  0
   34.5100   39.4430   21.4300 C   0  0  0  0  0  0  0  0  0  0  0  0
   34.9520   35.9910   20.1110 C   0  0  0  0  0  0  0  0  0  0  0  0
   36.0780   35.7580   18.0440 C   0  0  0  0  0  0  0  0  0  0  0  0
   33.8640   35.1200   23.6900 C   0  0  0  0  0  0  0  0  0  0  0  0
   37.9550   35.9210   19.4550 F   0  0  0  0  0  0  0  0  0  0  0  0
   35.3330   35.1520   19.0650 O   0  0  0  0  0  0  0  0  0  0  0  0
   34.2310   40.0750   22.5810 N   0  0  0  0  0  0  0  0  0  0  0  0
   34.3810   33.9390   21.2260 O   0  0  0  0  0  0  0  0  0  0  0  0
   34.2060   35.8750   22.4520 N   0  0  0  0  0  0  0  0  0  0  0  0
   33.9530   37.8990   23.6870 N   0  0  0  0  0  0  0  0  0  0  0  0
   33.9300   39.9300   24.9350 N   0  0  0  0  0  0  0  0  0  0  0  0
   39.3030   36.7550   17.3430 H   0  0  0  0  0  0  0  0  0  0  0  0
   34.0970   39.7200   27.3780 C   0  0  0  0  0  0  0  0  0  0  0  0
   35.2390   37.9430   19.2540 H   0  0  0  0  0  0  0  0  0  0  0  0
   35.8210   36.5250   14.7410 H   0  0  0  0  0  0  0  0  0  0  0  0
   34.4250   35.7140   16.6310 H   0  0  0  0  0  0  0  0  0  0  0  0
   34.6940   40.0700   20.5410 H   0  0  0  0  0  0  0  0  0  0  0  0
   34.5490   35.4200   24.5290 H   0  0  0  0  0  0  0  0  0  0  0  0
   32.8080   35.3460   24.0000 H   0  0  0  0  0  0  0  0  0  0  0  0
   33.9660   34.0170   23.5140 H   0  0  0  0  0  0  0  0  0  0  0  0
   33.7860   40.9600   24.9180 H   0  0  0  0  0  0  0  0  0  0  0  0
   38.3390   37.1650   14.9460 F   0  0  0  0  0  0  0  0  0  0  0  0
   31.8210   39.7320   26.2770 C   0  0  0  0  0  0  0  0  0  0  0  0
   31.1830   39.6270   24.9860 O   0  0  0  0  0  0  0  0  0  0  0  0
   30.3760   40.2210   25.0160 H   0  0  0  0  0  0  0  0  0  0  0  0
   31.2890   39.0500   26.9810 H   0  0  0  0  0  0  0  0  0  0  0  0
   31.7750   40.7950   26.6090 H   0  0  0  0  0  0  0  0  0  0  0  0
   33.8000   41.0610   27.8010 O   0  0  0  0  0  0  0  0  0  0  0  0
   33.7940   39.1030   28.2590 H   0  0  0  0  0  0  0  0  0  0  0  0
   35.1940   39.6450   27.1900 H   0  0  0  0  0  0  0  0  0  0  0  0
   33.8120   41.6710   26.9990 H   0  0  0  0  0  0  0  0  0  0  0  0
   33.3550   38.1660   26.0410 H   0  0  0  0  0  0  0  0  0  0  0  0
  1  3  2  0  0  0  0
  1  8  1  0  0  0  0
  1 23  1  0  0  0  0
  2 13  1  0  0  0  0
  2 19  2  0  0  0  0
  2 20  1  0  0  0  0
  3 14  1  0  0  0  0
  3 16  1  0  0  0  0
  4 18  2  0  0  0  0
  4 21  1  0  0  0  0
  4 22  1  0  0  0  0
  5 22  1  0  0  0  0
  5 24  1  0  0  0  0
  5 34  1  0  0  0  0
  5 43  1  0  0  0  0
  6  7  1  0  0  0  0
  6 11  1  0  0  0  0
  6 12  2  0  0  0  0
  7 13  2  0  0  0  0
  7 25  1  0  0  0  0
  8  9  2  0  0  0  0
  8 33  1  0  0  0  0
  9 10  1  0  0  0  0
  9 26  1  0  0  0  0
 10 14  2  0  0  0  0
 10 27  1  0  0  0  0
 11 20  1  0  0  0  0
 11 21  2  0  0  0  0
 12 18  1  0  0  0  0
 12 28  1  0  0  0  0
 13 17  1  0  0  0  0
 14 17  1  0  0  0  0
 15 20  1  0  0  0  0
 15 29  1  0  0  0  0
 15 30  1  0  0  0  0
 15 31  1  0  0  0  0
 22 32  1  0  0  0  0
 24 39  1  0  0  0  0
 24 40  1  0  0  0  0
 24 41  1  0  0  0  0
 34 35  1  0  0  0  0
 34 37  1  0  0  0  0
 34 38  1  0  0  0  0
 35 36  1  0  0  0  0
 39 42  1  0  0  0  0
M  END
$$$$
