ejm_31
 OpenBabel02232411173D
Structure written by MMmdl.
 32 33  0  0  0  0  0  0  0  0999 V2000
   -1.5440   21.5220  -27.5860 C   0  0  0  0  0  0  0  0  0  0  0  0
   -2.8140   20.9960  -27.8380 C   0  0  0  0  0  0  0  0  0  0  0  0
   -3.5970   21.5470  -28.8530 C   0  0  0  0  0  0  0  0  0  0  0  0
   -3.1430   22.6220  -29.6330 C   0  0  0  0  0  0  0  0  0  0  0  0
   -1.8740   23.1390  -29.3430 C   0  0  0  0  0  0  0  0  0  0  0  0
   -1.0700   22.6010  -28.3360 C   0  0  0  0  0  0  0  0  0  0  0  0
   -1.2620   24.4790  -30.2190 Cl  0  0  0  0  0  0  0  0  0  0  0  0
   -4.0080   23.1150  -30.7560 C   0  0  0  0  0  0  0  0  0  0  0  0
   -4.4070   22.3850  -31.6380 O   0  0  0  0  0  0  0  0  0  0  0  0
   -4.3350   24.4830  -30.6590 N   0  0  0  0  0  0  0  0  0  0  0  0
   -5.1900   25.2150  -31.5300 C   0  0  0  0  0  0  0  0  0  0  0  0
   -5.8630   24.6450  -32.6220 C   0  0  0  0  0  0  0  0  0  0  0  0
   -6.7240   25.4590  -33.3710 C   0  0  0  0  0  0  0  0  0  0  0  0
   -6.9280   26.7740  -33.1090 N   0  0  0  0  0  0  0  0  0  0  0  0
   -6.2440   27.3260  -32.0440 C   0  0  0  0  0  0  0  0  0  0  0  0
   -5.3700   26.5840  -31.2370 C   0  0  0  0  0  0  0  0  0  0  0  0
   -6.5170   28.7040  -31.8220 N   0  0  0  0  0  0  0  0  0  0  0  0
   -5.7460   29.5950  -31.0310 C   0  0  0  0  0  0  0  0  0  0  0  0
   -4.7890   29.1990  -30.3910 O   0  0  0  0  0  0  0  0  0  0  0  0
   -6.2070   31.0190  -31.0530 C   0  0  0  0  0  0  0  0  0  0  0  0
   -5.1510   20.8920  -29.1600 Cl  0  0  0  0  0  0  0  0  0  0  0  0
   -7.1680   31.1860  -31.5990 H   0  0  0  0  0  0  0  0  0  0  0  0
   -0.9190   21.0910  -26.7950 H   0  0  0  0  0  0  0  0  0  0  0  0
   -3.1780   20.1660  -27.2300 H   0  0  0  0  0  0  0  0  0  0  0  0
   -0.0810   23.0160  -28.1180 H   0  0  0  0  0  0  0  0  0  0  0  0
   -3.9320   25.0180  -29.8680 H   0  0  0  0  0  0  0  0  0  0  0  0
   -5.7490   23.5900  -32.8860 H   0  0  0  0  0  0  0  0  0  0  0  0
   -7.2850   25.0440  -34.2250 H   0  0  0  0  0  0  0  0  0  0  0  0
   -4.8390   27.0560  -30.4050 H   0  0  0  0  0  0  0  0  0  0  0  0
   -7.3980   29.0670  -32.2500 H   0  0  0  0  0  0  0  0  0  0  0  0
   -5.4320   31.6630  -31.5490 H   0  0  0  0  0  0  0  0  0  0  0  0
   -6.3330   31.4110  -30.0120 H   0  0  0  0  0  0  0  0  0  0  0  0
  1  2  2  0  0  0  0
  1  6  1  0  0  0  0
  1 23  1  0  0  0  0
  2  3  1  0  0  0  0
  2 24  1  0  0  0  0
  3  4  2  0  0  0  0
  3 21  1  0  0  0  0
  4  5  1  0  0  0  0
  4  8  1  0  0  0  0
  5  6  2  0  0  0  0
  5  7  1  0  0  0  0
  6 25  1  0  0  0  0
  8  9  2  0  0  0  0
  8 10  1  0  0  0  0
 10 11  1  0  0  0  0
 10 26  1  0  0  0  0
 11 12  2  0  0  0  0
 11 16  1  0  0  0  0
 12 13  1  0  0  0  0
 12 27  1  0  0  0  0
 13 14  2  0  0  0  0
 13 28  1  0  0  0  0
 14 15  1  0  0  0  0
 15 16  2  0  0  0  0
 15 17  1  0  0  0  0
 16 29  1  0  0  0  0
 17 18  1  0  0  0  0
 17 30  1  0  0  0  0
 18 19  2  0  0  0  0
 18 20  1  0  0  0  0
 20 22  1  0  0  0  0
 20 31  1  0  0  0  0
 20 32  1  0  0  0  0
M  END
$$$$
