1c
 OpenBabel02232411173D

 52 54  0  0  1  0  0  0  0  0999 V2000
   18.1870  -13.0770   21.5120 N   0  0  0  0  0  0  0  0  0  0  0  0
   17.9350  -11.7370   20.8980 C   0  0  2  0  0  0  0  0  0  0  0  0
   17.2900  -13.6460   22.3790 C   0  0  0  0  0  0  0  0  0  0  0  0
   16.2550  -13.0630   22.6950 O   0  0  0  0  0  0  0  0  0  0  0  0
   16.5130  -11.6570   20.2780 C   0  0  0  0  0  0  0  0  0  0  0  0
   16.0230  -12.5440   19.5940 O   0  0  0  0  0  0  0  0  0  0  0  0
   19.0200  -11.5730   19.8150 C   0  0  0  0  0  0  0  0  0  0  0  0
   17.6280  -15.0490   22.9590 C   0  0  2  0  0  0  0  0  0  0  0  0
   15.8750  -10.4510   20.5080 N   0  0  0  0  0  0  0  0  0  0  0  0
   20.0940  -12.6420   20.0860 C   0  0  0  0  0  0  0  0  0  0  0  0
   16.3460  -15.9020   22.9290 N   0  3  0  0  0  0  0  0  0  0  0  0
   18.1170  -14.9650   24.4180 C   0  0  0  0  0  0  0  0  0  0  0  0
   14.4900  -10.1560   20.0660 C   0  0  0  0  0  0  0  0  0  0  0  0
   19.4500  -13.6970   21.0040 C   0  0  0  0  0  0  0  0  0  0  0  0
   19.5580  -14.5330   24.5350 C   0  0  0  0  0  0  0  0  0  0  0  0
   13.4370  -10.7720   20.9560 C   0  0  0  0  0  0  0  0  0  0  0  0
   19.8860  -13.3580   25.2210 C   0  0  0  0  0  0  0  0  0  0  0  0
   12.9380  -12.0500   20.6650 C   0  0  0  0  0  0  0  0  0  0  0  0
   21.2220  -12.9680   25.3600 C   0  0  0  0  0  0  0  0  0  0  0  0
   11.9330  -12.6080   21.4600 C   0  0  0  0  0  0  0  0  0  0  0  0
   22.2440  -13.7690   24.8430 C   0  0  0  0  0  0  0  0  0  0  0  0
   11.3980  -11.8830   22.5280 C   0  0  0  0  0  0  0  0  0  0  0  0
   21.9200  -14.9590   24.1780 C   0  0  0  0  0  0  0  0  0  0  0  0
   11.9140  -10.6170   22.8140 C   0  0  0  0  0  0  0  0  0  0  0  0
   20.5860  -15.3370   24.0170 C   0  0  0  0  0  0  0  0  0  0  0  0
   12.9330  -10.0500   22.0490 C   0  0  0  0  0  0  0  0  0  0  0  0
   18.0720  -10.9560   21.6960 H   0  0  0  0  0  0  0  0  0  0  0  0
   18.5970  -11.7160   18.7940 H   0  0  0  0  0  0  0  0  0  0  0  0
   19.4570  -10.5580   19.8960 H   0  0  0  0  0  0  0  0  0  0  0  0
   18.3850  -15.6100   22.3370 H   0  0  0  0  0  0  0  0  0  0  0  0
   16.3260   -9.7370   21.1100 H   0  0  0  0  0  0  0  0  0  0  0  0
   20.4300  -13.1190   19.1340 H   0  0  0  0  0  0  0  0  0  0  0  0
   20.9800  -12.1890   20.5870 H   0  0  0  0  0  0  0  0  0  0  0  0
   16.5670  -16.8760   23.2950 H   0  0  0  0  0  0  0  0  0  0  0  0
   15.5970  -15.4510   23.5470 H   0  0  0  0  0  0  0  0  0  0  0  0
   15.9870  -16.0030   21.9400 H   0  0  0  0  0  0  0  0  0  0  0  0
   17.4500  -14.2780   24.9990 H   0  0  0  0  0  0  0  0  0  0  0  0
   18.0440  -15.9890   24.8850 H   0  0  0  0  0  0  0  0  0  0  0  0
   14.3920   -9.0340   20.0570 H   0  0  0  0  0  0  0  0  0  0  0  0
   14.3650  -10.5290   19.0090 H   0  0  0  0  0  0  0  0  0  0  0  0
   20.1240  -13.9430   21.8640 H   0  0  0  0  0  0  0  0  0  0  0  0
   19.2140  -14.6280   20.4270 H   0  0  0  0  0  0  0  0  0  0  0  0
   19.1010  -12.7560   25.6700 H   0  0  0  0  0  0  0  0  0  0  0  0
   13.3220  -12.6180   19.8130 H   0  0  0  0  0  0  0  0  0  0  0  0
   21.4420  -12.0330   25.8800 H   0  0  0  0  0  0  0  0  0  0  0  0
   11.5630  -13.6150   21.2480 H   0  0  0  0  0  0  0  0  0  0  0  0
   23.2920  -13.4830   24.9620 H   0  0  0  0  0  0  0  0  0  0  0  0
   22.7060  -15.6090   23.7820 H   0  0  0  0  0  0  0  0  0  0  0  0
   11.1900   -9.6670   24.3000 Br  0  0  0  0  0  0  0  0  0  0  0  0
   20.3420  -16.2680   23.4990 H   0  0  0  0  0  0  0  0  0  0  0  0
   13.3280   -9.0580   22.2870 H   0  0  0  0  0  0  0  0  0  0  0  0
   10.5780  -12.3050   23.1180 H   0  0  0  0  0  0  0  0  0  0  0  0
  1  2  1  0  0  0  0
  1 14  1  0  0  0  0
  1  3  1  0  0  0  0
  2  5  1  0  0  0  0
  2  7  1  0  0  0  0
  2 27  1  1  0  0  0
  3  8  1  0  0  0  0
  3  4  2  0  0  0  0
  5  6  2  0  0  0  0
  5  9  1  0  0  0  0
  7 10  1  0  0  0  0
  7 28  1  0  0  0  0
  7 29  1  0  0  0  0
  8 11  1  0  0  0  0
  8 12  1  0  0  0  0
  8 30  1  6  0  0  0
  9 13  1  0  0  0  0
  9 31  1  0  0  0  0
 10 14  1  0  0  0  0
 10 32  1  0  0  0  0
 10 33  1  0  0  0  0
 11 34  1  0  0  0  0
 11 35  1  0  0  0  0
 11 36  1  0  0  0  0
 12 15  1  0  0  0  0
 12 37  1  0  0  0  0
 12 38  1  0  0  0  0
 13 16  1  0  0  0  0
 13 39  1  0  0  0  0
 13 40  1  0  0  0  0
 14 41  1  0  0  0  0
 14 42  1  0  0  0  0
 15 17  2  0  0  0  0
 15 25  1  0  0  0  0
 16 18  2  0  0  0  0
 16 26  1  0  0  0  0
 17 19  1  0  0  0  0
 17 43  1  0  0  0  0
 18 20  1  0  0  0  0
 18 44  1  0  0  0  0
 19 21  2  0  0  0  0
 19 45  1  0  0  0  0
 20 22  2  0  0  0  0
 20 46  1  0  0  0  0
 21 23  1  0  0  0  0
 21 47  1  0  0  0  0
 22 24  1  0  0  0  0
 22 52  1  0  0  0  0
 23 25  2  0  0  0  0
 23 48  1  0  0  0  0
 24 26  2  0  0  0  0
 24 49  1  0  0  0  0
 25 50  1  0  0  0  0
 26 51  1  0  0  0  0
M  CHG  1  11   1
M  END
$$$$
