p38a_2z
 OpenBabel02232411163D
Structure written by MMmdl.
 45 47  0  0  0  0  0  0  0  0999 V2000
   38.3080   36.5710   17.1310 C   0  0  0  0  0  0  0  0  0  0  0  0
   34.4800   35.0510   21.1360 C   0  0  0  0  0  0  0  0  0  0  0  0
   37.5230   36.1140   18.1860 C   0  0  0  0  0  0  0  0  0  0  0  0
   33.7410   39.0490   23.7710 C   0  0  0  0  0  0  0  0  0  0  0  0
   32.6750   38.9580   26.1060 C   0  0  0  0  0  0  0  0  0  0  0  0
   34.5850   37.9240   21.3860 C   0  0  0  0  0  0  0  0  0  0  0  0
   35.0510   37.3030   20.1750 C   0  0  0  0  0  0  0  0  0  0  0  0
   37.6600   36.7370   15.8990 C   0  0  0  0  0  0  0  0  0  0  0  0
   36.3090   36.4470   15.6930 C   0  0  0  0  0  0  0  0  0  0  0  0
   35.5460   35.9740   16.7650 C   0  0  0  0  0  0  0  0  0  0  0  0
   34.1010   37.1200   22.4580 C   0  0  0  0  0  0  0  0  0  0  0  0
   34.5850   39.3310   21.5940 C   0  0  0  0  0  0  0  0  0  0  0  0
   35.0210   35.9530   20.0850 C   0  0  0  0  0  0  0  0  0  0  0  0
   36.1590   35.7980   18.0080 C   0  0  0  0  0  0  0  0  0  0  0  0
   33.4770   34.9170   23.4490 C   0  0  0  0  0  0  0  0  0  0  0  0
   38.0540   35.9710   19.3930 F   0  0  0  0  0  0  0  0  0  0  0  0
   35.4460   35.1540   19.0260 O   0  0  0  0  0  0  0  0  0  0  0  0
   34.1890   39.9030   22.7400 N   0  0  0  0  0  0  0  0  0  0  0  0
   34.3940   33.8450   21.0510 O   0  0  0  0  0  0  0  0  0  0  0  0
   34.0410   35.7230   22.3290 N   0  0  0  0  0  0  0  0  0  0  0  0
   33.6960   37.6720   23.6470 N   0  0  0  0  0  0  0  0  0  0  0  0
   33.3990   39.6310   24.9660 N   0  0  0  0  0  0  0  0  0  0  0  0
   39.3640   36.8230   17.2650 H   0  0  0  0  0  0  0  0  0  0  0  0
   31.2550   38.5720   25.6540 C   0  0  0  0  0  0  0  0  0  0  0  0
   35.4190   37.9460   19.3730 H   0  0  0  0  0  0  0  0  0  0  0  0
   35.8390   36.5970   14.7180 H   0  0  0  0  0  0  0  0  0  0  0  0
   34.4810   35.7600   16.6240 H   0  0  0  0  0  0  0  0  0  0  0  0
   34.9160   40.0040   20.7850 H   0  0  0  0  0  0  0  0  0  0  0  0
   34.1350   35.0030   24.3550 H   0  0  0  0  0  0  0  0  0  0  0  0
   32.4530   35.2970   23.7150 H   0  0  0  0  0  0  0  0  0  0  0  0
   33.3980   33.8390   23.1510 H   0  0  0  0  0  0  0  0  0  0  0  0
   33.4620   40.6690   25.0450 H   0  0  0  0  0  0  0  0  0  0  0  0
   38.3590   37.2350   14.8830 F   0  0  0  0  0  0  0  0  0  0  0  0
   33.4150   37.6780   26.6280 C   0  0  0  0  0  0  0  0  0  0  0  0
   32.6040   39.9960   27.2420 C   0  0  0  0  0  0  0  0  0  0  0  0
   34.8380   37.7640   26.5020 O   0  0  0  0  0  0  0  0  0  0  0  0
   35.0400   37.6910   25.5420 H   0  0  0  0  0  0  0  0  0  0  0  0
   33.2530   37.5710   27.7270 H   0  0  0  0  0  0  0  0  0  0  0  0
   33.0500   36.7700   26.0910 H   0  0  0  0  0  0  0  0  0  0  0  0
   32.0420   39.5770   28.1070 H   0  0  0  0  0  0  0  0  0  0  0  0
   33.6250   40.2800   27.5870 H   0  0  0  0  0  0  0  0  0  0  0  0
   32.0780   40.9100   26.8980 H   0  0  0  0  0  0  0  0  0  0  0  0
   30.6900   38.1540   26.5200 H   0  0  0  0  0  0  0  0  0  0  0  0
   30.7060   39.4620   25.2760 H   0  0  0  0  0  0  0  0  0  0  0  0
   31.2780   37.8010   24.8510 H   0  0  0  0  0  0  0  0  0  0  0  0
  1  3  2  0  0  0  0
  1  8  1  0  0  0  0
  1 23  1  0  0  0  0
  2 13  1  0  0  0  0
  2 19  2  0  0  0  0
  2 20  1  0  0  0  0
  3 14  1  0  0  0  0
  3 16  1  0  0  0  0
  4 18  2  0  0  0  0
  4 21  1  0  0  0  0
  4 22  1  0  0  0  0
  5 22  1  0  0  0  0
  5 24  1  0  0  0  0
  5 34  1  0  0  0  0
  5 35  1  0  0  0  0
  6  7  1  0  0  0  0
  6 11  1  0  0  0  0
  6 12  2  0  0  0  0
  7 13  2  0  0  0  0
  7 25  1  0  0  0  0
  8  9  2  0  0  0  0
  8 33  1  0  0  0  0
  9 10  1  0  0  0  0
  9 26  1  0  0  0  0
 10 14  2  0  0  0  0
 10 27  1  0  0  0  0
 11 20  1  0  0  0  0
 11 21  2  0  0  0  0
 12 18  1  0  0  0  0
 12 28  1  0  0  0  0
 13 17  1  0  0  0  0
 14 17  1  0  0  0  0
 15 20  1  0  0  0  0
 15 29  1  0  0  0  0
 15 30  1  0  0  0  0
 15 31  1  0  0  0  0
 22 32  1  0  0  0  0
 24 43  1  0  0  0  0
 24 44  1  0  0  0  0
 24 45  1  0  0  0  0
 34 36  1  0  0  0  0
 34 38  1  0  0  0  0
 34 39  1  0  0  0  0
 35 40  1  0  0  0  0
 35 41  1  0  0  0  0
 35 42  1  0  0  0  0
 36 37  1  0  0  0  0
M  END
$$$$
