18627-1
 OpenBabel02232411163D
Structure written by MMmdl.
 38 39  0  0  0  0  0  0  0  0999 V2000
   23.8450   12.6570   30.3580 C   0  0  0  0  0  0  0  0  0  0  0  0
   23.4050   11.2070   30.4360 C   0  0  0  0  0  0  0  0  0  0  0  0
   22.1570   11.2810   31.2400 O   0  0  0  0  0  0  0  0  0  0  0  0
   21.5380   10.1320   31.5790 C   0  0  0  0  0  0  0  0  0  0  0  0
   22.0310    8.9500   31.1370 N   0  0  0  0  0  0  0  0  0  0  0  0
   21.3220    7.8020   31.4570 C   0  0  0  0  0  0  0  0  0  0  0  0
   20.1690    7.8210   32.2340 C   0  0  0  0  0  0  0  0  0  0  0  0
   19.6620    9.0650   32.7010 C   0  0  0  0  0  0  0  0  0  0  0  0
   18.5140    9.0950   33.4490 N   0  0  0  0  0  0  0  0  0  0  0  0
   20.3540   10.2710   32.3640 C   0  0  0  0  0  0  0  0  0  0  0  0
   19.9220   11.5650   32.7260 C   0  0  0  0  0  0  0  0  0  0  0  0
   19.6160   12.6540   32.9820 N   0  0  0  0  0  0  0  0  0  0  0  0
   21.9090    6.6470   30.8830 N   0  0  0  0  0  0  0  0  0  0  0  0
   21.3720    5.3360   30.8600 C   0  0  0  0  0  0  0  0  0  0  0  0
   20.3350    5.0430   31.4160 O   0  0  0  0  0  0  0  0  0  0  0  0
   22.1910    4.3660   30.0190 C   0  0  0  0  0  0  0  0  0  0  0  0
   23.5000    3.9990   30.6650 C   0  0  0  0  0  0  0  0  0  0  0  0
   24.6570    4.7490   30.3980 C   0  0  0  0  0  0  0  0  0  0  0  0
   25.8720    4.4190   31.0030 C   0  0  0  0  0  0  0  0  0  0  0  0
   25.9170    3.3270   31.8720 C   0  0  0  0  0  0  0  0  0  0  0  0
   27.4120    2.9140   32.6230 Cl  0  0  0  0  0  0  0  0  0  0  0  0
   24.7850    2.5530   32.1380 C   0  0  0  0  0  0  0  0  0  0  0  0
   23.5770    2.8900   31.5230 C   0  0  0  0  0  0  0  0  0  0  0  0
   24.1020   13.0590   31.3630 H   0  0  0  0  0  0  0  0  0  0  0  0
   23.0460   13.2940   29.9090 H   0  0  0  0  0  0  0  0  0  0  0  0
   24.7500   12.7210   29.7030 H   0  0  0  0  0  0  0  0  0  0  0  0
   23.1370   10.7880   29.4410 H   0  0  0  0  0  0  0  0  0  0  0  0
   24.1340   10.5660   30.9800 H   0  0  0  0  0  0  0  0  0  0  0  0
   19.6340    6.9000   32.4740 H   0  0  0  0  0  0  0  0  0  0  0  0
   18.0190    8.2210   33.7130 H   0  0  0  0  0  0  0  0  0  0  0  0
   18.1040    9.9780   33.7570 H   0  0  0  0  0  0  0  0  0  0  0  0
   22.8040    6.8160   30.3820 H   0  0  0  0  0  0  0  0  0  0  0  0
   21.5810    3.4380   29.8560 H   0  0  0  0  0  0  0  0  0  0  0  0
   22.3830    4.8300   29.0150 H   0  0  0  0  0  0  0  0  0  0  0  0
   24.6320    5.5950   29.7040 H   0  0  0  0  0  0  0  0  0  0  0  0
   26.7690    5.0090   30.7870 H   0  0  0  0  0  0  0  0  0  0  0  0
   24.8400    1.6890   32.8090 H   0  0  0  0  0  0  0  0  0  0  0  0
   22.6970    2.2690   31.7110 H   0  0  0  0  0  0  0  0  0  0  0  0
  1  2  1  0  0  0  0
  1 24  1  0  0  0  0
  1 25  1  0  0  0  0
  1 26  1  0  0  0  0
  2  3  1  0  0  0  0
  2 27  1  0  0  0  0
  2 28  1  0  0  0  0
  3  4  1  0  0  0  0
  4 10  2  0  0  0  0
  4  5  1  0  0  0  0
  5  6  2  0  0  0  0
  6  7  1  0  0  0  0
  6 13  1  0  0  0  0
  7  8  2  0  0  0  0
  7 29  1  0  0  0  0
  8  9  1  0  0  0  0
  8 10  1  0  0  0  0
  9 30  1  0  0  0  0
  9 31  1  0  0  0  0
 10 11  1  0  0  0  0
 11 12  3  0  0  0  0
 13 14  1  0  0  0  0
 13 32  1  0  0  0  0
 14 15  2  0  0  0  0
 14 16  1  0  0  0  0
 16 17  1  0  0  0  0
 16 33  1  0  0  0  0
 16 34  1  0  0  0  0
 17 23  2  0  0  0  0
 17 18  1  0  0  0  0
 18 19  2  0  0  0  0
 18 35  1  0  0  0  0
 19 20  1  0  0  0  0
 19 36  1  0  0  0  0
 20 21  1  0  0  0  0
 20 22  2  0  0  0  0
 22 23  1  0  0  0  0
 22 37  1  0  0  0  0
 23 38  1  0  0  0  0
M  END
$$$$
