18658-1
 OpenBabel02232411163D
Structure written by MMmdl.
 47 48  0  0  0  0  0  0  0  0999 V2000
   23.0850   12.3030   28.7580 O   0  0  0  0  0  0  0  0  0  0  0  0
   23.4420   10.9770   29.2160 C   0  0  0  0  0  0  0  0  0  0  0  0
   23.5660   11.0690   30.7340 C   0  0  0  0  0  0  0  0  0  0  0  0
   22.2480   11.1720   31.3730 O   0  0  0  0  0  0  0  0  0  0  0  0
   21.5630   10.0370   31.6580 C   0  0  0  0  0  0  0  0  0  0  0  0
   22.0170    8.8530   31.1910 N   0  0  0  0  0  0  0  0  0  0  0  0
   21.2590    7.7240   31.4730 C   0  0  0  0  0  0  0  0  0  0  0  0
   20.0990    7.7710   32.2390 C   0  0  0  0  0  0  0  0  0  0  0  0
   19.6360    9.0210   32.7300 C   0  0  0  0  0  0  0  0  0  0  0  0
   18.4880    9.0700   33.4790 N   0  0  0  0  0  0  0  0  0  0  0  0
   20.3700   10.2110   32.4180 C   0  0  0  0  0  0  0  0  0  0  0  0
   19.9690   11.5150   32.7800 C   0  0  0  0  0  0  0  0  0  0  0  0
   19.6920   12.6140   33.0280 N   0  0  0  0  0  0  0  0  0  0  0  0
   21.8050    6.5670   30.8780 N   0  0  0  0  0  0  0  0  0  0  0  0
   21.1930    5.2960   30.7830 C   0  0  0  0  0  0  0  0  0  0  0  0
   20.1160    5.0480   31.2830 O   0  0  0  0  0  0  0  0  0  0  0  0
   21.9850    4.3110   29.9360 C   0  0  0  0  0  0  0  0  0  0  0  0
   23.3100    3.9540   30.5420 C   0  0  0  0  0  0  0  0  0  0  0  0
   24.4460    4.7680   30.3200 C   0  0  0  0  0  0  0  0  0  0  0  0
   24.1880    5.8490   29.4810 O   0  0  0  0  0  0  0  0  0  0  0  0
   25.2150    6.8700   29.3640 C   0  0  0  0  0  0  0  0  0  0  0  0
   25.6910    4.4690   30.8860 C   0  0  0  0  0  0  0  0  0  0  0  0
   25.8240    3.3370   31.6850 C   0  0  0  0  0  0  0  0  0  0  0  0
   24.7030    2.5100   31.8930 C   0  0  0  0  0  0  0  0  0  0  0  0
   23.4550    2.8050   31.3260 C   0  0  0  0  0  0  0  0  0  0  0  0
   24.9770    1.4330   32.7120 O   0  0  0  0  0  0  0  0  0  0  0  0
   23.9710    0.3940   32.8230 C   0  0  0  0  0  0  0  0  0  0  0  0
   22.9360   12.2330   27.7570 H   0  0  0  0  0  0  0  0  0  0  0  0
   22.6510   10.2590   28.9000 H   0  0  0  0  0  0  0  0  0  0  0  0
   24.4320   10.7040   28.7700 H   0  0  0  0  0  0  0  0  0  0  0  0
   24.0090   12.0470   31.0480 H   0  0  0  0  0  0  0  0  0  0  0  0
   24.1320   10.1980   31.1420 H   0  0  0  0  0  0  0  0  0  0  0  0
   19.5270    6.8660   32.4520 H   0  0  0  0  0  0  0  0  0  0  0  0
   17.9830    8.2010   33.7400 H   0  0  0  0  0  0  0  0  0  0  0  0
   18.1020    9.9570   33.8030 H   0  0  0  0  0  0  0  0  0  0  0  0
   22.7330    6.7050   30.4030 H   0  0  0  0  0  0  0  0  0  0  0  0
   21.3700    3.3850   29.7940 H   0  0  0  0  0  0  0  0  0  0  0  0
   22.1590    4.7820   28.9290 H   0  0  0  0  0  0  0  0  0  0  0  0
   26.0950    6.4520   28.8300 H   0  0  0  0  0  0  0  0  0  0  0  0
   24.6950    7.6400   28.7500 H   0  0  0  0  0  0  0  0  0  0  0  0
   25.4840    7.2690   30.3660 H   0  0  0  0  0  0  0  0  0  0  0  0
   26.5640    5.1020   30.7090 H   0  0  0  0  0  0  0  0  0  0  0  0
   26.7900    3.0920   32.1350 H   0  0  0  0  0  0  0  0  0  0  0  0
   22.5990    2.1500   31.4910 H   0  0  0  0  0  0  0  0  0  0  0  0
   24.4940   -0.3560   33.4630 H   0  0  0  0  0  0  0  0  0  0  0  0
   23.0650    0.7890   33.3290 H   0  0  0  0  0  0  0  0  0  0  0  0
   23.7460   -0.0260   31.8190 H   0  0  0  0  0  0  0  0  0  0  0  0
  1  2  1  0  0  0  0
  1 28  1  0  0  0  0
  2  3  1  0  0  0  0
  2 29  1  0  0  0  0
  2 30  1  0  0  0  0
  3  4  1  0  0  0  0
  3 31  1  0  0  0  0
  3 32  1  0  0  0  0
  4  5  1  0  0  0  0
  5 11  2  0  0  0  0
  5  6  1  0  0  0  0
  6  7  2  0  0  0  0
  7  8  1  0  0  0  0
  7 14  1  0  0  0  0
  8  9  2  0  0  0  0
  8 33  1  0  0  0  0
  9 10  1  0  0  0  0
  9 11  1  0  0  0  0
 10 34  1  0  0  0  0
 10 35  1  0  0  0  0
 11 12  1  0  0  0  0
 12 13  3  0  0  0  0
 14 15  1  0  0  0  0
 14 36  1  0  0  0  0
 15 16  2  0  0  0  0
 15 17  1  0  0  0  0
 17 18  1  0  0  0  0
 17 37  1  0  0  0  0
 17 38  1  0  0  0  0
 18 25  2  0  0  0  0
 18 19  1  0  0  0  0
 19 20  1  0  0  0  0
 19 22  2  0  0  0  0
 20 21  1  0  0  0  0
 21 39  1  0  0  0  0
 21 40  1  0  0  0  0
 21 41  1  0  0  0  0
 22 23  1  0  0  0  0
 22 42  1  0  0  0  0
 23 24  2  0  0  0  0
 23 43  1  0  0  0  0
 24 25  1  0  0  0  0
 24 26  1  0  0  0  0
 25 44  1  0  0  0  0
 26 27  1  0  0  0  0
 27 45  1  0  0  0  0
 27 46  1  0  0  0  0
 27 47  1  0  0  0  0
M  END
$$$$
