17
 OpenBabel02232411153D
Structure written by MMmdl.
 45 48  0  0  0  0  0  0  0  0999 V2000
    1.9120   28.8470    6.8090 C   0  0  0  0  0  0  0  0  0  0  0  0
   -1.5660   31.4560    7.9510 C   0  0  0  0  0  0  0  0  0  0  0  0
   -0.0690   25.9830    8.9140 C   0  0  0  0  0  0  0  0  0  0  0  0
   -0.8650   25.2730   10.0160 C   0  0  0  0  0  0  0  0  0  0  0  0
   -0.6930   23.7520    9.7990 C   0  0  0  0  0  0  0  0  0  0  0  0
   -1.3540   22.9470   10.9260 C   0  0  0  0  0  0  0  0  0  0  0  0
   -0.8410   23.3810   12.3090 C   0  0  0  0  0  0  0  0  0  0  0  0
   -1.0420   24.8890   12.5260 C   0  0  0  0  0  0  0  0  0  0  0  0
   -0.3740   25.7070   11.4110 C   0  0  0  0  0  0  0  0  0  0  0  0
    4.4630   25.3050    7.8550 C   0  0  0  0  0  0  0  0  0  0  0  0
    5.3120   24.8570    6.8370 C   0  0  0  0  0  0  0  0  0  0  0  0
    5.4210   25.6260    5.6780 C   0  0  0  0  0  0  0  0  0  0  0  0
    4.7100   26.8070    5.5040 C   0  0  0  0  0  0  0  0  0  0  0  0
    1.1950   27.8970    7.5310 N   0  0  0  0  0  0  0  0  0  0  0  0
   -0.0040   28.2310    8.0750 C   0  0  0  0  0  0  0  0  0  0  0  0
   -0.6870   27.3310    8.7990 O   0  0  0  0  0  0  0  0  0  0  0  0
   -0.5270   29.5380    7.8960 C   0  0  0  0  0  0  0  0  0  0  0  0
   -1.6730   30.1910    8.3640 N   0  0  0  0  0  0  0  0  0  0  0  0
   -0.3520   31.6860    7.2100 N   0  0  0  0  0  0  0  0  0  0  0  0
    0.3080   30.4630    7.1450 C   0  0  0  0  0  0  0  0  0  0  0  0
    1.5060   30.1460    6.5540 N   0  0  0  0  0  0  0  0  0  0  0  0
    3.1440   28.4620    6.2940 N   0  0  0  0  0  0  0  0  0  0  0  0
    3.8360   27.2330    6.5310 C   0  0  0  0  0  0  0  0  0  0  0  0
    3.7340   26.4880    7.7190 C   0  0  0  0  0  0  0  0  0  0  0  0
   -2.2660   32.2640    8.1400 H   0  0  0  0  0  0  0  0  0  0  0  0
    1.0020   26.0950    9.1920 H   0  0  0  0  0  0  0  0  0  0  0  0
   -0.1970   25.5080    7.9200 H   0  0  0  0  0  0  0  0  0  0  0  0
   -1.9470   25.5320    9.9300 H   0  0  0  0  0  0  0  0  0  0  0  0
   -1.1530   23.4640    8.8280 H   0  0  0  0  0  0  0  0  0  0  0  0
    0.3960   23.5020    9.7700 H   0  0  0  0  0  0  0  0  0  0  0  0
   -2.4540   23.1010   10.8890 H   0  0  0  0  0  0  0  0  0  0  0  0
   -1.1370   21.8620   10.7830 H   0  0  0  0  0  0  0  0  0  0  0  0
   -1.3880   22.8160   13.0990 H   0  0  0  0  0  0  0  0  0  0  0  0
    0.2450   23.1420   12.3860 H   0  0  0  0  0  0  0  0  0  0  0  0
   -2.1320   25.1160   12.5660 H   0  0  0  0  0  0  0  0  0  0  0  0
   -0.5900   25.1800   13.5030 H   0  0  0  0  0  0  0  0  0  0  0  0
    0.7310   25.5640   11.4850 H   0  0  0  0  0  0  0  0  0  0  0  0
   -0.6000   26.7860   11.5640 H   0  0  0  0  0  0  0  0  0  0  0  0
    4.3630   24.7160    8.7730 H   0  0  0  0  0  0  0  0  0  0  0  0
    5.8690   23.9250    6.9510 H   0  0  0  0  0  0  0  0  0  0  0  0
    4.8230   27.4030    4.5940 H   0  0  0  0  0  0  0  0  0  0  0  0
   -0.0880   32.5660    6.7440 H   0  0  0  0  0  0  0  0  0  0  0  0
    3.6380   29.1210    5.6450 H   0  0  0  0  0  0  0  0  0  0  0  0
    3.0910   26.8110    8.5400 H   0  0  0  0  0  0  0  0  0  0  0  0
    6.5770   25.0340    4.2690 Br  0  0  0  0  0  0  0  0  0  0  0  0
  1 14  2  0  0  0  0
  1 21  1  0  0  0  0
  1 22  1  0  0  0  0
  2 18  2  0  0  0  0
  2 19  1  0  0  0  0
  2 25  1  0  0  0  0
  3  4  1  0  0  0  0
  3 16  1  0  0  0  0
  3 26  1  0  0  0  0
  3 27  1  0  0  0  0
  4  5  1  0  0  0  0
  4  9  1  0  0  0  0
  4 28  1  0  0  0  0
  5  6  1  0  0  0  0
  5 29  1  0  0  0  0
  5 30  1  0  0  0  0
  6  7  1  0  0  0  0
  6 31  1  0  0  0  0
  6 32  1  0  0  0  0
  7  8  1  0  0  0  0
  7 33  1  0  0  0  0
  7 34  1  0  0  0  0
  8  9  1  0  0  0  0
  8 35  1  0  0  0  0
  8 36  1  0  0  0  0
  9 37  1  0  0  0  0
  9 38  1  0  0  0  0
 10 11  2  0  0  0  0
 10 24  1  0  0  0  0
 10 39  1  0  0  0  0
 11 12  1  0  0  0  0
 11 40  1  0  0  0  0
 12 13  2  0  0  0  0
 12 45  1  0  0  0  0
 13 23  1  0  0  0  0
 13 41  1  0  0  0  0
 14 15  1  0  0  0  0
 15 16  1  0  0  0  0
 15 17  2  0  0  0  0
 17 18  1  0  0  0  0
 17 20  1  0  0  0  0
 19 20  1  0  0  0  0
 19 42  1  0  0  0  0
 20 21  2  0  0  0  0
 22 23  1  0  0  0  0
 22 43  1  0  0  0  0
 23 24  2  0  0  0  0
 24 44  1  0  0  0  0
M  END
$$$$
