p38a_3fly
 OpenBabel02232411163D
Structure written by MMmdl.
 41 43  0  0  0  0  0  0  0  0999 V2000
   34.7640   39.3190   21.6260 C   0  0  0  0  0  0  0  0  0  0  0  0
   34.4070   37.1580   22.6700 C   0  0  0  0  0  0  0  0  0  0  0  0
   34.4980   39.9540   22.7760 N   0  0  0  0  0  0  0  0  0  0  0  0
   34.7810   37.9020   21.5110 C   0  0  0  0  0  0  0  0  0  0  0  0
   35.1690   37.2190   20.3080 C   0  0  0  0  0  0  0  0  0  0  0  0
   35.0980   35.8680   20.2770 C   0  0  0  0  0  0  0  0  0  0  0  0
   34.5520   35.0370   21.3830 C   0  0  0  0  0  0  0  0  0  0  0  0
   34.2440   39.1520   23.9100 C   0  0  0  0  0  0  0  0  0  0  0  0
   33.7220   39.1260   26.3900 C   0  0  0  0  0  0  0  0  0  0  0  0
   34.5830   39.7060   27.5220 C   0  0  0  0  0  0  0  0  0  0  0  0
   32.2250   39.3840   26.6210 C   0  0  0  0  0  0  0  0  0  0  0  0
   36.2310   35.5980   18.2170 C   0  0  0  0  0  0  0  0  0  0  0  0
   37.5320   36.0720   18.4070 C   0  0  0  0  0  0  0  0  0  0  0  0
   38.2630   36.5120   17.2980 C   0  0  0  0  0  0  0  0  0  0  0  0
   37.6520   36.5110   16.0420 C   0  0  0  0  0  0  0  0  0  0  0  0
   36.3590   36.0210   15.8130 C   0  0  0  0  0  0  0  0  0  0  0  0
   35.6660   35.5550   16.9250 C   0  0  0  0  0  0  0  0  0  0  0  0
   38.3120   37.0350   15.0110 F   0  0  0  0  0  0  0  0  0  0  0  0
   34.4480   35.0450   16.7950 F   0  0  0  0  0  0  0  0  0  0  0  0
   35.4550   35.0200   19.2280 O   0  0  0  0  0  0  0  0  0  0  0  0
   34.3160   33.8510   21.3200 O   0  0  0  0  0  0  0  0  0  0  0  0
   34.2950   35.7590   22.6010 N   0  0  0  0  0  0  0  0  0  0  0  0
   33.9010   35.0030   23.8220 C   0  0  0  0  0  0  0  0  0  0  0  0
   34.1370   37.7730   23.8670 N   0  0  0  0  0  0  0  0  0  0  0  0
   34.1540   39.7950   25.1180 N   0  0  0  0  0  0  0  0  0  0  0  0
   34.9680   39.9430   20.7400 H   0  0  0  0  0  0  0  0  0  0  0  0
   35.5290   37.8180   19.4680 H   0  0  0  0  0  0  0  0  0  0  0  0
   33.9070   38.0190   26.3150 H   0  0  0  0  0  0  0  0  0  0  0  0
   35.6630   39.5180   27.3280 H   0  0  0  0  0  0  0  0  0  0  0  0
   34.4240   40.8040   27.6240 H   0  0  0  0  0  0  0  0  0  0  0  0
   34.3060   39.2180   28.4850 H   0  0  0  0  0  0  0  0  0  0  0  0
   31.6150   38.9100   25.8210 H   0  0  0  0  0  0  0  0  0  0  0  0
   31.9220   38.9460   27.6000 H   0  0  0  0  0  0  0  0  0  0  0  0
   32.0160   40.4760   26.6400 H   0  0  0  0  0  0  0  0  0  0  0  0
   37.9740   36.1270   19.4050 H   0  0  0  0  0  0  0  0  0  0  0  0
   39.2860   36.8790   17.4220 H   0  0  0  0  0  0  0  0  0  0  0  0
   35.9120   36.0290   14.8160 H   0  0  0  0  0  0  0  0  0  0  0  0
   33.9250   33.9000   23.6220 H   0  0  0  0  0  0  0  0  0  0  0  0
   34.6100   35.2360   24.6640 H   0  0  0  0  0  0  0  0  0  0  0  0
   32.8650   35.2980   24.1420 H   0  0  0  0  0  0  0  0  0  0  0  0
   34.0890   40.8330   25.1420 H   0  0  0  0  0  0  0  0  0  0  0  0
  1  3  2  0  0  0  0
  1  4  1  0  0  0  0
  1 26  1  0  0  0  0
  2  4  2  0  0  0  0
  2 22  1  0  0  0  0
  2 24  1  0  0  0  0
  3  8  1  0  0  0  0
  4  5  1  0  0  0  0
  5  6  2  0  0  0  0
  5 27  1  0  0  0  0
  6  7  1  0  0  0  0
  6 20  1  0  0  0  0
  7 21  2  0  0  0  0
  7 22  1  0  0  0  0
  8 24  2  0  0  0  0
  8 25  1  0  0  0  0
  9 10  1  0  0  0  0
  9 11  1  0  0  0  0
  9 25  1  0  0  0  0
  9 28  1  0  0  0  0
 10 29  1  0  0  0  0
 10 30  1  0  0  0  0
 10 31  1  0  0  0  0
 11 32  1  0  0  0  0
 11 33  1  0  0  0  0
 11 34  1  0  0  0  0
 12 13  2  0  0  0  0
 12 17  1  0  0  0  0
 12 20  1  0  0  0  0
 13 14  1  0  0  0  0
 13 35  1  0  0  0  0
 14 15  2  0  0  0  0
 14 36  1  0  0  0  0
 15 16  1  0  0  0  0
 15 18  1  0  0  0  0
 16 17  2  0  0  0  0
 16 37  1  0  0  0  0
 17 19  1  0  0  0  0
 22 23  1  0  0  0  0
 23 38  1  0  0  0  0
 23 39  1  0  0  0  0
 23 40  1  0  0  0  0
 25 41  1  0  0  0  0
M  END
$$$$
