p38a_2s
 OpenBabel02232411163D
Structure written by MMmdl.
 54 57  0  0  1  0  0  0  0  0999 V2000
   37.7930   36.1810   17.6160 C   0  0  0  0  0  0  0  0  0  0  0  0
   33.7030   35.0090   21.4770 C   0  0  0  0  0  0  0  0  0  0  0  0
   36.9230   35.8040   18.6350 C   0  0  0  0  0  0  0  0  0  0  0  0
   33.3670   39.1630   23.9330 C   0  0  0  0  0  0  0  0  0  0  0  0
   34.0110   37.8640   21.5890 C   0  0  0  0  0  0  0  0  0  0  0  0
   34.4440   37.1570   20.4160 C   0  0  0  0  0  0  0  0  0  0  0  0
   37.2460   36.2710   16.3290 C   0  0  0  0  0  0  0  0  0  0  0  0
   35.9060   35.9960   16.0440 C   0  0  0  0  0  0  0  0  0  0  0  0
   35.0530   35.6200   17.0880 C   0  0  0  0  0  0  0  0  0  0  0  0
   33.4330   37.1640   22.6910 C   0  0  0  0  0  0  0  0  0  0  0  0
   34.1910   39.2680   21.7330 C   0  0  0  0  0  0  0  0  0  0  0  0
   34.3320   35.8100   20.3940 C   0  0  0  0  0  0  0  0  0  0  0  0
   35.5660   35.5080   18.3840 C   0  0  0  0  0  0  0  0  0  0  0  0
   37.3760   35.7130   19.8780 F   0  0  0  0  0  0  0  0  0  0  0  0
   34.7530   34.9480   19.3800 O   0  0  0  0  0  0  0  0  0  0  0  0
   33.8890   39.9230   22.8590 N   0  0  0  0  0  0  0  0  0  0  0  0
   33.5770   33.8040   21.4810 O   0  0  0  0  0  0  0  0  0  0  0  0
   33.2140   35.7730   22.6020 N   0  0  0  0  0  0  0  0  0  0  0  0
   33.1290   37.8050   23.8650 N   0  0  0  0  0  0  0  0  0  0  0  0
   33.0820   39.8790   25.0690 N   0  0  0  0  0  0  0  0  0  0  0  0
   38.8410   36.4350   17.8090 H   0  0  0  0  0  0  0  0  0  0  0  0
   34.8740   37.7350   19.5930 H   0  0  0  0  0  0  0  0  0  0  0  0
   35.5140   36.0890   15.0280 H   0  0  0  0  0  0  0  0  0  0  0  0
   33.9940   35.4280   16.8830 H   0  0  0  0  0  0  0  0  0  0  0  0
   34.6040   39.8620   20.8980 H   0  0  0  0  0  0  0  0  0  0  0  0
   33.3550   40.8840   25.0940 H   0  0  0  0  0  0  0  0  0  0  0  0
   38.0420   36.6670   15.3380 F   0  0  0  0  0  0  0  0  0  0  0  0
   33.2190   38.0130   28.4390 C   0  0  0  0  0  0  0  0  0  0  0  0
   33.7250   38.4850   27.0680 C   0  0  0  0  0  0  0  0  0  0  0  0
   32.6410   39.3520   26.3940 C   0  0  0  0  0  0  0  0  0  0  0  0
   31.3110   38.5820   26.3190 C   0  0  0  0  0  0  0  0  0  0  0  0
   30.9110   38.1290   27.7280 C   0  0  0  0  0  0  0  0  0  0  0  0
   31.9500   37.3300   28.3410 O   0  0  0  0  0  0  0  0  0  0  0  0
   33.1160   38.8720   29.1430 H   0  0  0  0  0  0  0  0  0  0  0  0
   33.8820   37.2220   28.8620 H   0  0  0  0  0  0  0  0  0  0  0  0
   33.9660   37.6000   26.4330 H   0  0  0  0  0  0  0  0  0  0  0  0
   34.6600   39.0810   27.2080 H   0  0  0  0  0  0  0  0  0  0  0  0
   32.4870   40.2860   27.0170 H   0  0  0  0  0  0  0  0  0  0  0  0
   30.5180   39.2310   25.8850 H   0  0  0  0  0  0  0  0  0  0  0  0
   31.4150   37.6810   25.6620 H   0  0  0  0  0  0  0  0  0  0  0  0
   30.6870   38.9940   28.3910 H   0  0  0  0  0  0  0  0  0  0  0  0
   30.0580   37.4140   27.6940 H   0  0  0  0  0  0  0  0  0  0  0  0
   32.5540   35.0330   23.7240 C   0  0  0  0  0  0  0  0  0  0  0  0
   33.1550   34.1040   23.9340 H   0  0  0  0  0  0  0  0  0  0  0  0
   32.5530   35.6780   24.6530 H   0  0  0  0  0  0  0  0  0  0  0  0
   31.0910   34.6520   23.4160 C   0  0  2  0  0  0  0  0  0  0  0  0
   30.3030   35.7770   23.8660 O   0  0  0  0  0  0  0  0  0  0  0  0
   29.3450   35.6100   23.6250 H   0  0  0  0  0  0  0  0  0  0  0  0
   30.6350   33.4010   24.2040 C   0  0  0  0  0  0  0  0  0  0  0  0
   30.5690   33.6170   25.2960 H   0  0  0  0  0  0  0  0  0  0  0  0
   31.2800   32.5150   24.0000 H   0  0  0  0  0  0  0  0  0  0  0  0
   30.8840   34.5170   22.3320 H   0  0  0  0  0  0  0  0  0  0  0  0
   29.3370   32.9750   23.7530 O   0  0  0  0  0  0  0  0  0  0  0  0
   28.7660   33.7960   23.6160 H   0  0  0  0  0  0  0  0  0  0  0  0
  1  3  2  0  0  0  0
  1  7  1  0  0  0  0
  1 21  1  0  0  0  0
  2 12  1  0  0  0  0
  2 17  2  0  0  0  0
  2 18  1  0  0  0  0
  3 13  1  0  0  0  0
  3 14  1  0  0  0  0
  4 16  2  0  0  0  0
  4 19  1  0  0  0  0
  4 20  1  0  0  0  0
  5  6  1  0  0  0  0
  5 10  1  0  0  0  0
  5 11  2  0  0  0  0
  6 12  2  0  0  0  0
  6 22  1  0  0  0  0
  7  8  2  0  0  0  0
  7 27  1  0  0  0  0
  8  9  1  0  0  0  0
  8 23  1  0  0  0  0
  9 13  2  0  0  0  0
  9 24  1  0  0  0  0
 10 18  1  0  0  0  0
 10 19  2  0  0  0  0
 11 16  1  0  0  0  0
 11 25  1  0  0  0  0
 12 15  1  0  0  0  0
 13 15  1  0  0  0  0
 18 43  1  0  0  0  0
 20 26  1  0  0  0  0
 20 30  1  0  0  0  0
 28 29  1  0  0  0  0
 28 33  1  0  0  0  0
 28 34  1  0  0  0  0
 28 35  1  0  0  0  0
 29 30  1  0  0  0  0
 29 36  1  0  0  0  0
 29 37  1  0  0  0  0
 30 31  1  0  0  0  0
 30 38  1  0  0  0  0
 31 32  1  0  0  0  0
 31 39  1  0  0  0  0
 31 40  1  0  0  0  0
 32 33  1  0  0  0  0
 32 41  1  0  0  0  0
 32 42  1  0  0  0  0
 43 44  1  0  0  0  0
 43 45  1  0  0  0  0
 43 46  1  0  0  0  0
 46 47  1  0  0  0  0
 46 49  1  0  0  0  0
 46 52  1  1  0  0  0
 47 48  1  0  0  0  0
 49 50  1  0  0  0  0
 49 51  1  0  0  0  0
 49 53  1  0  0  0  0
 53 54  1  0  0  0  0
M  END
$$$$
