p38a_2o
 OpenBabel02232411163D
Structure written by MMmdl.
 55 58  0  0  0  0  0  0  0  0999 V2000
   36.3720   35.9400   15.8810 C   0  0  0  0  0  0  0  0  0  0  0  0
   34.5130   34.8320   21.4240 C   0  0  0  0  0  0  0  0  0  0  0  0
   35.6550   35.4620   16.9740 C   0  0  0  0  0  0  0  0  0  0  0  0
   34.0310   38.8810   24.0360 C   0  0  0  0  0  0  0  0  0  0  0  0
   34.7250   37.6910   21.6480 C   0  0  0  0  0  0  0  0  0  0  0  0
   35.1310   37.0510   20.4280 C   0  0  0  0  0  0  0  0  0  0  0  0
   37.6540   36.4390   16.1450 C   0  0  0  0  0  0  0  0  0  0  0  0
   38.2350   36.4400   17.4170 C   0  0  0  0  0  0  0  0  0  0  0  0
   37.4810   35.9850   18.5040 C   0  0  0  0  0  0  0  0  0  0  0  0
   34.2960   36.9130   22.7640 C   0  0  0  0  0  0  0  0  0  0  0  0
   34.7470   39.1050   21.8140 C   0  0  0  0  0  0  0  0  0  0  0  0
   35.0510   35.7030   20.3460 C   0  0  0  0  0  0  0  0  0  0  0  0
   36.1890   35.5010   18.2780 C   0  0  0  0  0  0  0  0  0  0  0  0
   34.4470   34.9400   16.8100 F   0  0  0  0  0  0  0  0  0  0  0  0
   35.3960   34.8960   19.2620 O   0  0  0  0  0  0  0  0  0  0  0  0
   34.4160   39.7110   22.9600 N   0  0  0  0  0  0  0  0  0  0  0  0
   34.3260   33.6390   21.3160 O   0  0  0  0  0  0  0  0  0  0  0  0
   34.2240   35.5060   22.6650 N   0  0  0  0  0  0  0  0  0  0  0  0
   33.9510   37.4990   23.9520 N   0  0  0  0  0  0  0  0  0  0  0  0
   33.6900   39.4880   25.2150 N   0  0  0  0  0  0  0  0  0  0  0  0
   35.9490   35.9510   14.8740 H   0  0  0  0  0  0  0  0  0  0  0  0
   35.5000   37.6800   19.6130 H   0  0  0  0  0  0  0  0  0  0  0  0
   39.2500   36.8180   17.5670 H   0  0  0  0  0  0  0  0  0  0  0  0
   37.8950   36.0350   19.5140 H   0  0  0  0  0  0  0  0  0  0  0  0
   35.0510   39.7510   20.9710 H   0  0  0  0  0  0  0  0  0  0  0  0
   33.7650   40.5210   25.3010 H   0  0  0  0  0  0  0  0  0  0  0  0
   38.3370   36.9730   15.1340 F   0  0  0  0  0  0  0  0  0  0  0  0
   33.3310   40.5080   28.2650 C   0  0  0  0  0  0  0  0  0  0  0  0
   32.4800   39.5940   27.3760 C   0  0  0  0  0  0  0  0  0  0  0  0
   33.3140   38.7010   26.4360 C   0  0  0  0  0  0  0  0  0  0  0  0
   34.5590   38.1240   27.1390 C   0  0  0  0  0  0  0  0  0  0  0  0
   35.3000   39.1680   27.9760 C   0  0  0  0  0  0  0  0  0  0  0  0
   34.4030   39.7990   28.9200 O   0  0  0  0  0  0  0  0  0  0  0  0
   32.7380   40.8950   29.1260 H   0  0  0  0  0  0  0  0  0  0  0  0
   33.7700   41.3410   27.6710 H   0  0  0  0  0  0  0  0  0  0  0  0
   31.7850   40.2290   26.7710 H   0  0  0  0  0  0  0  0  0  0  0  0
   31.8600   38.9200   28.0180 H   0  0  0  0  0  0  0  0  0  0  0  0
   32.6670   37.8410   26.0900 H   0  0  0  0  0  0  0  0  0  0  0  0
   34.2190   37.2840   27.7980 H   0  0  0  0  0  0  0  0  0  0  0  0
   35.2580   37.6870   26.3830 H   0  0  0  0  0  0  0  0  0  0  0  0
   36.0540   38.6950   28.6450 H   0  0  0  0  0  0  0  0  0  0  0  0
   35.7540   39.9520   27.3290 H   0  0  0  0  0  0  0  0  0  0  0  0
   33.8370   34.6780   23.8650 C   0  0  0  0  0  0  0  0  0  0  0  0
   34.3480   33.6790   23.7490 H   0  0  0  0  0  0  0  0  0  0  0  0
   34.2390   35.1910   24.7860 H   0  0  0  0  0  0  0  0  0  0  0  0
   32.3210   34.5020   23.9690 C   0  0  0  0  0  0  0  0  0  0  0  0
   31.8510   35.5250   24.0410 H   0  0  0  0  0  0  0  0  0  0  0  0
   31.9400   34.0490   23.0130 H   0  0  0  0  0  0  0  0  0  0  0  0
   31.7430   33.5220   25.3290 S   0  0  0  0  0  0  0  0  0  0  0  0
   30.3450   33.1230   25.0420 O   0  0  0  0  0  0  0  0  0  0  0  0
   31.8420   34.2480   26.6120 O   0  0  0  0  0  0  0  0  0  0  0  0
   32.7330   32.0990   25.3830 C   0  0  0  0  0  0  0  0  0  0  0  0
   33.7690   32.3070   25.7620 H   0  0  0  0  0  0  0  0  0  0  0  0
   32.3050   31.3190   26.0670 H   0  0  0  0  0  0  0  0  0  0  0  0
   32.8490   31.6090   24.3840 H   0  0  0  0  0  0  0  0  0  0  0  0
  1  3  2  0  0  0  0
  1  7  1  0  0  0  0
  1 21  1  0  0  0  0
  2 12  1  0  0  0  0
  2 17  2  0  0  0  0
  2 18  1  0  0  0  0
  3 13  1  0  0  0  0
  3 14  1  0  0  0  0
  4 16  2  0  0  0  0
  4 19  1  0  0  0  0
  4 20  1  0  0  0  0
  5  6  1  0  0  0  0
  5 10  1  0  0  0  0
  5 11  2  0  0  0  0
  6 12  2  0  0  0  0
  6 22  1  0  0  0  0
  7  8  2  0  0  0  0
  7 27  1  0  0  0  0
  8  9  1  0  0  0  0
  8 23  1  0  0  0  0
  9 13  2  0  0  0  0
  9 24  1  0  0  0  0
 10 18  1  0  0  0  0
 10 19  2  0  0  0  0
 11 16  1  0  0  0  0
 11 25  1  0  0  0  0
 12 15  1  0  0  0  0
 13 15  1  0  0  0  0
 18 43  1  0  0  0  0
 20 26  1  0  0  0  0
 20 30  1  0  0  0  0
 28 29  1  0  0  0  0
 28 33  1  0  0  0  0
 28 34  1  0  0  0  0
 28 35  1  0  0  0  0
 29 30  1  0  0  0  0
 29 36  1  0  0  0  0
 29 37  1  0  0  0  0
 30 31  1  0  0  0  0
 30 38  1  0  0  0  0
 31 32  1  0  0  0  0
 31 39  1  0  0  0  0
 31 40  1  0  0  0  0
 32 33  1  0  0  0  0
 32 41  1  0  0  0  0
 32 42  1  0  0  0  0
 43 44  1  0  0  0  0
 43 45  1  0  0  0  0
 43 46  1  0  0  0  0
 46 47  1  0  0  0  0
 46 48  1  0  0  0  0
 46 49  1  0  0  0  0
 49 50  2  0  0  0  0
 49 51  2  0  0  0  0
 49 52  1  0  0  0  0
 52 53  1  0  0  0  0
 52 54  1  0  0  0  0
 52 55  1  0  0  0  0
M  END
$$$$
