jmc_23
 OpenBabel02232411173D
Structure written by MMmdl.
 36 38  0  0  1  0  0  0  0  0999 V2000
   -1.5490   21.5390  -27.5800 C   0  0  0  0  0  0  0  0  0  0  0  0
   -2.8220   21.0210  -27.8370 C   0  0  0  0  0  0  0  0  0  0  0  0
   -3.6020   21.5840  -28.8480 C   0  0  0  0  0  0  0  0  0  0  0  0
   -3.1430   22.6660  -29.6170 C   0  0  0  0  0  0  0  0  0  0  0  0
   -1.8710   23.1720  -29.3250 C   0  0  0  0  0  0  0  0  0  0  0  0
   -1.0690   22.6200  -28.3230 C   0  0  0  0  0  0  0  0  0  0  0  0
   -1.2490   24.5100  -30.1960 Cl  0  0  0  0  0  0  0  0  0  0  0  0
   -4.0060   23.1720  -30.7360 C   0  0  0  0  0  0  0  0  0  0  0  0
   -4.4010   22.4500  -31.6260 O   0  0  0  0  0  0  0  0  0  0  0  0
   -4.3330   24.5400  -30.6310 N   0  0  0  0  0  0  0  0  0  0  0  0
   -5.1810   25.2770  -31.5060 C   0  0  0  0  0  0  0  0  0  0  0  0
   -5.8360   24.7090  -32.6110 C   0  0  0  0  0  0  0  0  0  0  0  0
   -6.6890   25.5220  -33.3710 C   0  0  0  0  0  0  0  0  0  0  0  0
   -6.8980   26.8380  -33.1110 N   0  0  0  0  0  0  0  0  0  0  0  0
   -6.2360   27.3840  -32.0300 C   0  0  0  0  0  0  0  0  0  0  0  0
   -5.3760   26.6420  -31.2080 C   0  0  0  0  0  0  0  0  0  0  0  0
   -6.5290   28.7580  -31.7940 N   0  0  0  0  0  0  0  0  0  0  0  0
   -5.7160   29.6600  -31.0630 C   0  0  0  0  0  0  0  0  0  0  0  0
   -4.6580   29.3080  -30.5790 O   0  0  0  0  0  0  0  0  0  0  0  0
   -6.2960   31.0330  -30.9370 C   0  0  1  0  0  0  0  0  0  0  0  0
   -5.7920   31.9490  -29.8170 C   0  0  0  0  0  0  0  0  0  0  0  0
   -5.4820   32.2920  -31.2510 C   0  0  1  0  0  0  0  0  0  0  0  0
   -4.2170   32.1250  -31.6880 F   0  0  0  0  0  0  0  0  0  0  0  0
   -5.1540   20.9310  -29.1640 Cl  0  0  0  0  0  0  0  0  0  0  0  0
   -7.3690   31.1090  -31.1890 H   0  0  0  0  0  0  0  0  0  0  0  0
   -5.9660   33.1390  -31.7570 H   0  0  0  0  0  0  0  0  0  0  0  0
   -0.9260   21.0990  -26.7930 H   0  0  0  0  0  0  0  0  0  0  0  0
   -3.1900   20.1880  -27.2360 H   0  0  0  0  0  0  0  0  0  0  0  0
   -0.0770   23.0270  -28.1040 H   0  0  0  0  0  0  0  0  0  0  0  0
   -3.9360   25.0690  -29.8320 H   0  0  0  0  0  0  0  0  0  0  0  0
   -5.7160   23.6560  -32.8760 H   0  0  0  0  0  0  0  0  0  0  0  0
   -7.2380   25.1050  -34.2310 H   0  0  0  0  0  0  0  0  0  0  0  0
   -4.8680   27.1120  -30.3610 H   0  0  0  0  0  0  0  0  0  0  0  0
   -7.4420   29.1010  -32.1700 H   0  0  0  0  0  0  0  0  0  0  0  0
   -6.5370   32.5700  -29.2910 H   0  0  0  0  0  0  0  0  0  0  0  0
   -5.0000   31.5970  -29.1410 H   0  0  0  0  0  0  0  0  0  0  0  0
  1  2  2  0  0  0  0
  1  6  1  0  0  0  0
  1 27  1  0  0  0  0
  2  3  1  0  0  0  0
  2 28  1  0  0  0  0
  3  4  2  0  0  0  0
  3 24  1  0  0  0  0
  4  5  1  0  0  0  0
  4  8  1  0  0  0  0
  5  6  2  0  0  0  0
  5  7  1  0  0  0  0
  6 29  1  0  0  0  0
  8  9  2  0  0  0  0
  8 10  1  0  0  0  0
 10 11  1  0  0  0  0
 10 30  1  0  0  0  0
 11 12  2  0  0  0  0
 11 16  1  0  0  0  0
 12 13  1  0  0  0  0
 12 31  1  0  0  0  0
 13 14  2  0  0  0  0
 13 32  1  0  0  0  0
 14 15  1  0  0  0  0
 15 16  2  0  0  0  0
 15 17  1  0  0  0  0
 16 33  1  0  0  0  0
 17 18  1  0  0  0  0
 17 34  1  0  0  0  0
 18 19  2  0  0  0  0
 18 20  1  0  0  0  0
 20 21  1  0  0  0  0
 20 22  1  0  0  0  0
 20 25  1  6  0  0  0
 21 22  1  0  0  0  0
 21 35  1  0  0  0  0
 21 36  1  0  0  0  0
 22 23  1  0  0  0  0
 22 26  1  6  0  0  0
M  END
$$$$
