p38a_2u
 OpenBabel02232411163D
Structure written by MMmdl.
 64 68  0  0  0  0  0  0  0  0999 V2000
   38.3180   36.5740   17.1200 C   0  0  0  0  0  0  0  0  0  0  0  0
   34.5850   35.0360   21.1640 C   0  0  0  0  0  0  0  0  0  0  0  0
   37.5350   36.1040   18.1720 C   0  0  0  0  0  0  0  0  0  0  0  0
   34.0040   39.0620   23.7850 C   0  0  0  0  0  0  0  0  0  0  0  0
   34.6800   37.8910   21.3880 C   0  0  0  0  0  0  0  0  0  0  0  0
   35.0850   37.2730   20.1550 C   0  0  0  0  0  0  0  0  0  0  0  0
   37.6730   36.7300   15.8860 C   0  0  0  0  0  0  0  0  0  0  0  0
   36.3280   36.4170   15.6730 C   0  0  0  0  0  0  0  0  0  0  0  0
   35.5670   35.9340   16.7420 C   0  0  0  0  0  0  0  0  0  0  0  0
   34.3190   37.0960   22.5190 C   0  0  0  0  0  0  0  0  0  0  0  0
   34.6380   39.3030   21.5440 C   0  0  0  0  0  0  0  0  0  0  0  0
   35.0750   35.9240   20.0780 C   0  0  0  0  0  0  0  0  0  0  0  0
   36.1770   35.7700   17.9880 C   0  0  0  0  0  0  0  0  0  0  0  0
   38.0640   35.9700   19.3810 F   0  0  0  0  0  0  0  0  0  0  0  0
   35.4600   35.1240   19.0040 O   0  0  0  0  0  0  0  0  0  0  0  0
   34.3140   39.9040   22.6980 N   0  0  0  0  0  0  0  0  0  0  0  0
   34.4420   33.8360   21.0580 O   0  0  0  0  0  0  0  0  0  0  0  0
   34.2690   35.6920   22.4100 N   0  0  0  0  0  0  0  0  0  0  0  0
   34.0130   37.6840   23.7200 N   0  0  0  0  0  0  0  0  0  0  0  0
   33.5940   39.6770   24.9510 N   0  0  0  0  0  0  0  0  0  0  0  0
   39.3680   36.8450   17.2620 H   0  0  0  0  0  0  0  0  0  0  0  0
   35.3970   37.9170   19.3310 H   0  0  0  0  0  0  0  0  0  0  0  0
   35.8600   36.5620   14.6970 H   0  0  0  0  0  0  0  0  0  0  0  0
   34.5050   35.7070   16.5980 H   0  0  0  0  0  0  0  0  0  0  0  0
   34.8780   39.9570   20.6890 H   0  0  0  0  0  0  0  0  0  0  0  0
   33.7040   40.7090   25.0350 H   0  0  0  0  0  0  0  0  0  0  0  0
   38.3680   37.2420   14.8730 F   0  0  0  0  0  0  0  0  0  0  0  0
   32.4560   39.0640   28.5390 C   0  0  0  0  0  0  0  0  0  0  0  0
   32.4420   39.6380   27.1180 C   0  0  0  0  0  0  0  0  0  0  0  0
   33.5270   38.9530   26.2560 C   0  0  0  0  0  0  0  0  0  0  0  0
   34.9010   39.0060   26.9620 C   0  0  0  0  0  0  0  0  0  0  0  0
   34.7840   38.4710   28.3940 C   0  0  0  0  0  0  0  0  0  0  0  0
   33.7650   39.1750   29.1430 O   0  0  0  0  0  0  0  0  0  0  0  0
   32.1460   37.9940   28.5400 H   0  0  0  0  0  0  0  0  0  0  0  0
   31.8240   39.6720   29.2260 H   0  0  0  0  0  0  0  0  0  0  0  0
   32.6320   40.7370   27.1610 H   0  0  0  0  0  0  0  0  0  0  0  0
   31.4410   39.4680   26.6550 H   0  0  0  0  0  0  0  0  0  0  0  0
   33.2330   37.8820   26.0750 H   0  0  0  0  0  0  0  0  0  0  0  0
   35.6340   38.3820   26.3970 H   0  0  0  0  0  0  0  0  0  0  0  0
   35.2700   40.0600   26.9840 H   0  0  0  0  0  0  0  0  0  0  0  0
   34.5410   37.3830   28.3920 H   0  0  0  0  0  0  0  0  0  0  0  0
   35.7040   38.6860   28.9840 H   0  0  0  0  0  0  0  0  0  0  0  0
   31.8690   34.0140   24.9300 C   0  0  0  0  0  0  0  0  0  0  0  0
   32.3440   35.0980   23.9390 C   0  0  0  0  0  0  0  0  0  0  0  0
   33.7980   34.8030   23.5390 C   0  0  0  0  0  0  0  0  0  0  0  0
   34.6980   34.8690   24.7840 C   0  0  0  0  0  0  0  0  0  0  0  0
   34.2360   33.7910   25.7930 C   0  0  0  0  0  0  0  0  0  0  0  0
   31.8090   33.0260   24.4050 H   0  0  0  0  0  0  0  0  0  0  0  0
   30.8490   34.3140   25.2920 H   0  0  0  0  0  0  0  0  0  0  0  0
   32.2720   36.0950   24.4440 H   0  0  0  0  0  0  0  0  0  0  0  0
   31.6700   35.1030   23.0540 H   0  0  0  0  0  0  0  0  0  0  0  0
   33.8470   33.7470   23.1320 H   0  0  0  0  0  0  0  0  0  0  0  0
   35.7630   34.6900   24.5200 H   0  0  0  0  0  0  0  0  0  0  0  0
   34.6150   35.8720   25.2740 H   0  0  0  0  0  0  0  0  0  0  0  0
   34.4500   32.7730   25.3750 H   0  0  0  0  0  0  0  0  0  0  0  0
   34.8160   33.9450   26.7430 H   0  0  0  0  0  0  0  0  0  0  0  0
   32.7840   33.9420   26.1070 N   0  0  0  0  0  0  0  0  0  0  0  0
   32.1630   33.3340   27.5830 S   0  0  0  0  0  0  0  0  0  0  0  0
   33.1450   32.4170   28.1950 O   0  0  0  0  0  0  0  0  0  0  0  0
   30.8780   32.6510   27.3250 O   0  0  0  0  0  0  0  0  0  0  0  0
   31.9460   34.7580   28.5380 C   0  0  0  0  0  0  0  0  0  0  0  0
   32.8860   35.3660   28.6020 H   0  0  0  0  0  0  0  0  0  0  0  0
   31.1630   35.4390   28.1080 H   0  0  0  0  0  0  0  0  0  0  0  0
   31.6340   34.5320   29.5900 H   0  0  0  0  0  0  0  0  0  0  0  0
  1  3  2  0  0  0  0
  1  7  1  0  0  0  0
  1 21  1  0  0  0  0
  2 12  1  0  0  0  0
  2 17  2  0  0  0  0
  2 18  1  0  0  0  0
  3 13  1  0  0  0  0
  3 14  1  0  0  0  0
  4 16  2  0  0  0  0
  4 19  1  0  0  0  0
  4 20  1  0  0  0  0
  5  6  1  0  0  0  0
  5 10  1  0  0  0  0
  5 11  2  0  0  0  0
  6 12  2  0  0  0  0
  6 22  1  0  0  0  0
  7  8  2  0  0  0  0
  7 27  1  0  0  0  0
  8  9  1  0  0  0  0
  8 23  1  0  0  0  0
  9 13  2  0  0  0  0
  9 24  1  0  0  0  0
 10 18  1  0  0  0  0
 10 19  2  0  0  0  0
 11 16  1  0  0  0  0
 11 25  1  0  0  0  0
 12 15  1  0  0  0  0
 13 15  1  0  0  0  0
 18 45  1  0  0  0  0
 20 26  1  0  0  0  0
 20 30  1  0  0  0  0
 28 29  1  0  0  0  0
 28 33  1  0  0  0  0
 28 34  1  0  0  0  0
 28 35  1  0  0  0  0
 29 30  1  0  0  0  0
 29 36  1  0  0  0  0
 29 37  1  0  0  0  0
 30 31  1  0  0  0  0
 30 38  1  0  0  0  0
 31 32  1  0  0  0  0
 31 39  1  0  0  0  0
 31 40  1  0  0  0  0
 32 33  1  0  0  0  0
 32 41  1  0  0  0  0
 32 42  1  0  0  0  0
 43 44  1  0  0  0  0
 43 48  1  0  0  0  0
 43 49  1  0  0  0  0
 43 57  1  0  0  0  0
 44 45  1  0  0  0  0
 44 50  1  0  0  0  0
 44 51  1  0  0  0  0
 45 46  1  0  0  0  0
 45 52  1  0  0  0  0
 46 47  1  0  0  0  0
 46 53  1  0  0  0  0
 46 54  1  0  0  0  0
 47 55  1  0  0  0  0
 47 56  1  0  0  0  0
 47 57  1  0  0  0  0
 57 58  1  0  0  0  0
 58 59  2  0  0  0  0
 58 60  2  0  0  0  0
 58 61  1  0  0  0  0
 61 62  1  0  0  0  0
 61 63  1  0  0  0  0
 61 64  1  0  0  0  0
M  END
$$$$
