CAT-13f
                    3D
 Schrodinger Suite 2022-3.
 49 52  0  0  1  0  0  0  0  0999 V2000
   11.7780   -2.4850    1.3750 C   0  0  0  0  0  0  0  0  0  0  0  0
   13.0360   -2.8690    0.7060 N   0  0  0  0  0  0  0  0  0  0  0  0
   14.2590   -2.8390    1.3890 C   0  0  0  0  0  0  0  0  0  0  0  0
   14.4070   -2.7260    2.7420 N   0  0  0  0  0  0  0  0  0  0  0  0
   15.3020   -3.0160    0.4950 N   0  3  0  0  0  0  0  0  0  0  0  0
   14.7980   -3.3030   -0.8980 C   0  0  1  0  0  0  0  0  0  0  0  0
   15.2930   -2.2070   -1.8300 C   0  0  0  0  0  0  0  0  0  0  0  0
   15.8830   -2.4740   -3.0690 C   0  0  0  0  0  0  0  0  0  0  0  0
   16.2840   -1.4120   -3.8910 C   0  0  0  0  0  0  0  0  0  0  0  0
   16.0790   -0.0890   -3.5050 C   0  0  0  0  0  0  0  0  0  0  0  0
   15.4640    0.1950   -2.2710 C   0  0  0  0  0  0  0  0  0  0  0  0
   15.1910    1.5920   -1.8610 C   0  0  0  0  0  0  0  0  0  0  0  0
   14.5990    2.4930   -2.7600 C   0  0  0  0  0  0  0  0  0  0  0  0
   14.3150    3.8040   -2.3640 C   0  0  0  0  0  0  0  0  0  0  0  0
   14.5970    4.2310   -1.0630 C   0  0  0  0  0  0  0  0  0  0  0  0
   15.1760    3.3210   -0.1760 C   0  0  0  0  0  0  0  0  0  0  0  0
   15.4650    3.7940    1.4560 Cl  0  0  0  0  0  0  0  0  0  0  0  0
   15.4930    2.0160   -0.5570 C   0  0  0  0  0  0  0  0  0  0  0  0
   15.0870   -0.8690   -1.4410 C   0  0  0  0  0  0  0  0  0  0  0  0
   15.0270   -4.7730   -1.3180 C   0  0  0  0  0  0  0  0  0  0  0  0
   16.4940   -5.2520   -1.2850 C   0  0  0  0  0  0  0  0  0  0  0  0
   16.3820   -6.7910   -1.3080 C   0  0  0  0  0  0  0  0  0  0  0  0
   15.0250   -7.1400   -0.6550 C   0  0  0  0  0  0  0  0  0  0  0  0
   14.2810   -5.8040   -0.4320 C   0  0  0  0  0  0  0  0  0  0  0  0
   13.2510   -3.0980   -0.7300 C   0  0  0  0  0  0  0  0  0  0  0  0
   12.3570   -3.0990   -1.5160 O   0  0  0  0  0  0  0  0  0  0  0  0
   11.8520   -1.4120    1.6900 H   0  0  0  0  0  0  0  0  0  0  0  0
   10.9160   -2.6230    0.6710 H   0  0  0  0  0  0  0  0  0  0  0  0
   11.6180   -3.1290    2.2830 H   0  0  0  0  0  0  0  0  0  0  0  0
   13.6930   -2.2250    3.3260 H   0  0  0  0  0  0  0  0  0  0  0  0
   16.2650   -3.2650    0.8340 H   0  0  0  0  0  0  0  0  0  0  0  0
   16.0310   -3.4950   -3.4220 H   0  0  0  0  0  0  0  0  0  0  0  0
   16.7660   -1.6260   -4.8500 H   0  0  0  0  0  0  0  0  0  0  0  0
   16.3980    0.7250   -4.1660 H   0  0  0  0  0  0  0  0  0  0  0  0
   14.3440    2.1650   -3.7730 H   0  0  0  0  0  0  0  0  0  0  0  0
   13.8550    4.4970   -3.0790 H   0  0  0  0  0  0  0  0  0  0  0  0
   14.3530    5.2500   -0.7500 H   0  0  0  0  0  0  0  0  0  0  0  0
   15.9550    1.3220    0.1440 H   0  0  0  0  0  0  0  0  0  0  0  0
   14.6250   -0.6580   -0.4780 H   0  0  0  0  0  0  0  0  0  0  0  0
   14.6360   -4.8760   -2.3670 H   0  0  0  0  0  0  0  0  0  0  0  0
   17.0760   -4.8730   -2.1480 H   0  0  0  0  0  0  0  0  0  0  0  0
   16.9920   -4.9170   -0.3470 H   0  0  0  0  0  0  0  0  0  0  0  0
   16.3820   -7.1530   -2.3610 H   0  0  0  0  0  0  0  0  0  0  0  0
   17.2300   -7.2530   -0.7630 H   0  0  0  0  0  0  0  0  0  0  0  0
   14.4330   -7.8000   -1.3310 H   0  0  0  0  0  0  0  0  0  0  0  0
   15.1650   -7.6660    0.3130 H   0  0  0  0  0  0  0  0  0  0  0  0
   14.3440   -5.5190    0.6420 H   0  0  0  0  0  0  0  0  0  0  0  0
   13.2130   -5.8900   -0.7220 H   0  0  0  0  0  0  0  0  0  0  0  0
   15.3850   -2.6250    3.1290 H   0  0  0  0  0  0  0  0  0  0  0  0
  1  2  1  0  0  0  0
  1 27  1  0  0  0  0
  1 28  1  0  0  0  0
  1 29  1  0  0  0  0
  2  3  1  0  0  0  0
  2 25  1  0  0  0  0
  3  4  1  0  0  0  0
  3  5  2  0  0  0  0
  4 30  1  0  0  0  0
  4 49  1  0  0  0  0
  5  6  1  0  0  0  0
  5 31  1  0  0  0  0
  6  7  1  0  0  0  0
  6 20  1  0  0  0  0
  6 25  1  0  0  0  0
  7  8  2  0  0  0  0
  7 19  1  0  0  0  0
  8  9  1  0  0  0  0
  8 32  1  0  0  0  0
  9 10  2  0  0  0  0
  9 33  1  0  0  0  0
 10 11  1  0  0  0  0
 10 34  1  0  0  0  0
 11 12  1  0  0  0  0
 11 19  2  0  0  0  0
 12 13  2  0  0  0  0
 12 18  1  0  0  0  0
 13 14  1  0  0  0  0
 13 35  1  0  0  0  0
 14 15  2  0  0  0  0
 14 36  1  0  0  0  0
 15 16  1  0  0  0  0
 15 37  1  0  0  0  0
 16 17  1  0  0  0  0
 16 18  2  0  0  0  0
 18 38  1  0  0  0  0
 19 39  1  0  0  0  0
 20 21  1  0  0  0  0
 20 24  1  0  0  0  0
 20 40  1  0  0  0  0
 21 22  1  0  0  0  0
 21 41  1  0  0  0  0
 21 42  1  0  0  0  0
 22 23  1  0  0  0  0
 22 43  1  0  0  0  0
 22 44  1  0  0  0  0
 23 24  1  0  0  0  0
 23 45  1  0  0  0  0
 23 46  1  0  0  0  0
 24 47  1  0  0  0  0
 24 48  1  0  0  0  0
 25 26  2  0  0  0  0
M  CHG  1   5   1
M  END
$$$$
