32
 OpenBabel02232411153D
Structure written by MMmdl.
 54 57  0  0  0  0  0  0  0  0999 V2000
    1.7830   28.9150    6.7820 C   0  0  0  0  0  0  0  0  0  0  0  0
   -1.6340   31.5570    8.0050 C   0  0  0  0  0  0  0  0  0  0  0  0
   -0.1930   26.0500    8.8750 C   0  0  0  0  0  0  0  0  0  0  0  0
   -0.9440   25.3370   10.0060 C   0  0  0  0  0  0  0  0  0  0  0  0
   -0.7380   23.8180    9.8010 C   0  0  0  0  0  0  0  0  0  0  0  0
   -1.3470   23.0090   10.9550 C   0  0  0  0  0  0  0  0  0  0  0  0
   -0.8070   23.4750   12.3160 C   0  0  0  0  0  0  0  0  0  0  0  0
   -1.0490   24.9790   12.5230 C   0  0  0  0  0  0  0  0  0  0  0  0
   -0.4290   25.8000   11.3830 C   0  0  0  0  0  0  0  0  0  0  0  0
    4.2410   25.4210    7.9590 C   0  0  0  0  0  0  0  0  0  0  0  0
    5.0760   24.8600    6.9750 C   0  0  0  0  0  0  0  0  0  0  0  0
    5.2290   25.5810    5.7710 C   0  0  0  0  0  0  0  0  0  0  0  0
    4.5620   26.7940    5.5440 C   0  0  0  0  0  0  0  0  0  0  0  0
    1.0540   27.9620    7.4830 N   0  0  0  0  0  0  0  0  0  0  0  0
   -0.1230   28.3070    8.0660 C   0  0  0  0  0  0  0  0  0  0  0  0
   -0.8000   27.4060    8.7930 O   0  0  0  0  0  0  0  0  0  0  0  0
   -0.6230   29.6270    7.9190 C   0  0  0  0  0  0  0  0  0  0  0  0
   -1.7540   30.2890    8.4090 N   0  0  0  0  0  0  0  0  0  0  0  0
   -0.4280   31.7780    7.2520 N   0  0  0  0  0  0  0  0  0  0  0  0
    0.2170   30.5490    7.1710 C   0  0  0  0  0  0  0  0  0  0  0  0
    1.4090   30.2260    6.5650 N   0  0  0  0  0  0  0  0  0  0  0  0
    2.9980   28.4960    6.2290 N   0  0  0  0  0  0  0  0  0  0  0  0
    3.6930   27.2910    6.5290 C   0  0  0  0  0  0  0  0  0  0  0  0
    3.5680   26.6150    7.7630 C   0  0  0  0  0  0  0  0  0  0  0  0
   -2.3230   32.3690    8.2160 H   0  0  0  0  0  0  0  0  0  0  0  0
    0.8910   26.1490    9.1070 H   0  0  0  0  0  0  0  0  0  0  0  0
   -0.3660   25.5850    7.8840 H   0  0  0  0  0  0  0  0  0  0  0  0
   -2.0340   25.5690    9.9460 H   0  0  0  0  0  0  0  0  0  0  0  0
   -1.2150   23.5060    8.8460 H   0  0  0  0  0  0  0  0  0  0  0  0
    0.3570   23.5970    9.7480 H   0  0  0  0  0  0  0  0  0  0  0  0
   -2.4510   23.1350   10.9470 H   0  0  0  0  0  0  0  0  0  0  0  0
   -1.1050   21.9300   10.8170 H   0  0  0  0  0  0  0  0  0  0  0  0
   -1.3080   22.9020   13.1290 H   0  0  0  0  0  0  0  0  0  0  0  0
    0.2890   23.2740   12.3590 H   0  0  0  0  0  0  0  0  0  0  0  0
   -2.1440   25.1750   12.5830 H   0  0  0  0  0  0  0  0  0  0  0  0
   -0.5850   25.2940   13.4860 H   0  0  0  0  0  0  0  0  0  0  0  0
    0.6820   25.6830   11.4300 H   0  0  0  0  0  0  0  0  0  0  0  0
   -0.6750   26.8770   11.5270 H   0  0  0  0  0  0  0  0  0  0  0  0
    4.0880   24.9080    8.9160 H   0  0  0  0  0  0  0  0  0  0  0  0
    4.6940   27.3570    4.6220 H   0  0  0  0  0  0  0  0  0  0  0  0
   -0.1500   32.6560    6.7900 H   0  0  0  0  0  0  0  0  0  0  0  0
    3.4950   29.1410    5.5680 H   0  0  0  0  0  0  0  0  0  0  0  0
    2.9350   27.0090    8.5570 H   0  0  0  0  0  0  0  0  0  0  0  0
    5.8710   23.3700    7.2890 S   0  0  0  0  0  0  0  0  0  0  0  0
    5.8970   22.5420    6.0760 O   0  0  0  0  0  0  0  0  0  0  0  0
    7.1890   23.6510    7.8660 O   0  0  0  0  0  0  0  0  0  0  0  0
    4.9250   22.5180    8.4050 N   0  0  0  0  0  0  0  0  0  0  0  0
    3.9820   22.1800    8.1710 H   0  0  0  0  0  0  0  0  0  0  0  0
    4.9820   22.8120    9.4230 H   0  0  0  0  0  0  0  0  0  0  0  0
    6.0530   24.9790    4.8660 O   0  0  0  0  0  0  0  0  0  0  0  0
    6.2760   25.6310    3.5840 C   0  0  0  0  0  0  0  0  0  0  0  0
    6.9930   24.9280    3.0960 H   0  0  0  0  0  0  0  0  0  0  0  0
    5.3200   25.6880    3.0200 H   0  0  0  0  0  0  0  0  0  0  0  0
    6.7400   26.6280    3.7420 H   0  0  0  0  0  0  0  0  0  0  0  0
  1 14  2  0  0  0  0
  1 21  1  0  0  0  0
  1 22  1  0  0  0  0
  2 18  2  0  0  0  0
  2 19  1  0  0  0  0
  2 25  1  0  0  0  0
  3  4  1  0  0  0  0
  3 16  1  0  0  0  0
  3 26  1  0  0  0  0
  3 27  1  0  0  0  0
  4  5  1  0  0  0  0
  4  9  1  0  0  0  0
  4 28  1  0  0  0  0
  5  6  1  0  0  0  0
  5 29  1  0  0  0  0
  5 30  1  0  0  0  0
  6  7  1  0  0  0  0
  6 31  1  0  0  0  0
  6 32  1  0  0  0  0
  7  8  1  0  0  0  0
  7 33  1  0  0  0  0
  7 34  1  0  0  0  0
  8  9  1  0  0  0  0
  8 35  1  0  0  0  0
  8 36  1  0  0  0  0
  9 37  1  0  0  0  0
  9 38  1  0  0  0  0
 10 11  2  0  0  0  0
 10 24  1  0  0  0  0
 10 39  1  0  0  0  0
 11 12  1  0  0  0  0
 11 44  1  0  0  0  0
 12 13  2  0  0  0  0
 12 50  1  0  0  0  0
 13 23  1  0  0  0  0
 13 40  1  0  0  0  0
 14 15  1  0  0  0  0
 15 16  1  0  0  0  0
 15 17  2  0  0  0  0
 17 18  1  0  0  0  0
 17 20  1  0  0  0  0
 19 20  1  0  0  0  0
 19 41  1  0  0  0  0
 20 21  2  0  0  0  0
 22 23  1  0  0  0  0
 22 42  1  0  0  0  0
 23 24  2  0  0  0  0
 24 43  1  0  0  0  0
 44 45  2  0  0  0  0
 44 46  2  0  0  0  0
 44 47  1  0  0  0  0
 47 49  1  0  0  0  0
 47 48  1  0  0  0  0
 50 51  1  0  0  0  0
 51 52  1  0  0  0  0
 51 53  1  0  0  0  0
 51 54  1  0  0  0  0
M  END
$$$$
