28
 OpenBabel02232411153D
Structure written by MMmdl.
 53 56  0  0  0  0  0  0  0  0999 V2000
    1.8400   28.9370    6.7340 C   0  0  0  0  0  0  0  0  0  0  0  0
   -1.6240   31.5040    7.9940 C   0  0  0  0  0  0  0  0  0  0  0  0
   -0.0060   26.0670    8.9550 C   0  0  0  0  0  0  0  0  0  0  0  0
   -0.8340   25.3360   10.0180 C   0  0  0  0  0  0  0  0  0  0  0  0
   -0.6980   23.8180    9.7610 C   0  0  0  0  0  0  0  0  0  0  0  0
   -1.4140   23.0030   10.8470 C   0  0  0  0  0  0  0  0  0  0  0  0
   -0.9280   23.3790   12.2550 C   0  0  0  0  0  0  0  0  0  0  0  0
   -1.0810   24.8870   12.5110 C   0  0  0  0  0  0  0  0  0  0  0  0
   -0.3600   25.7120   11.4360 C   0  0  0  0  0  0  0  0  0  0  0  0
    5.4800   25.8720    5.4470 C   0  0  0  0  0  0  0  0  0  0  0  0
    5.4100   25.0850    6.6020 C   0  0  0  0  0  0  0  0  0  0  0  0
    4.5240   25.4490    7.6260 C   0  0  0  0  0  0  0  0  0  0  0  0
    3.7200   26.5830    7.5140 C   0  0  0  0  0  0  0  0  0  0  0  0
    1.1610   27.9760    7.4750 N   0  0  0  0  0  0  0  0  0  0  0  0
   -0.0230   28.2960    8.0620 C   0  0  0  0  0  0  0  0  0  0  0  0
   -0.6680   27.3920    8.8110 O   0  0  0  0  0  0  0  0  0  0  0  0
   -0.5650   29.5990    7.9020 C   0  0  0  0  0  0  0  0  0  0  0  0
   -1.7100   30.2330    8.3970 N   0  0  0  0  0  0  0  0  0  0  0  0
   -0.4260   31.7550    7.2360 N   0  0  0  0  0  0  0  0  0  0  0  0
    0.2450   30.5400    7.1460 C   0  0  0  0  0  0  0  0  0  0  0  0
    1.4330   30.2400    6.5240 N   0  0  0  0  0  0  0  0  0  0  0  0
    3.0350   28.5520    6.1230 N   0  0  0  0  0  0  0  0  0  0  0  0
    3.7830   27.3620    6.3450 C   0  0  0  0  0  0  0  0  0  0  0  0
    4.6820   27.0000    5.3140 C   0  0  0  0  0  0  0  0  0  0  0  0
   -2.3310   32.3000    8.2060 H   0  0  0  0  0  0  0  0  0  0  0  0
    1.0440   26.2320    9.2850 H   0  0  0  0  0  0  0  0  0  0  0  0
   -0.0620   25.5860    7.9580 H   0  0  0  0  0  0  0  0  0  0  0  0
   -1.9080   25.6280    9.9210 H   0  0  0  0  0  0  0  0  0  0  0  0
   -1.1400   23.5710    8.7700 H   0  0  0  0  0  0  0  0  0  0  0  0
    0.3840   23.5390    9.7540 H   0  0  0  0  0  0  0  0  0  0  0  0
   -2.5070   23.1990   10.7830 H   0  0  0  0  0  0  0  0  0  0  0  0
   -1.2310   21.9170   10.6780 H   0  0  0  0  0  0  0  0  0  0  0  0
   -1.5190   22.8140   13.0120 H   0  0  0  0  0  0  0  0  0  0  0  0
    0.1460   23.0980   12.3590 H   0  0  0  0  0  0  0  0  0  0  0  0
   -2.1630   25.1520   12.5320 H   0  0  0  0  0  0  0  0  0  0  0  0
   -0.6430   25.1360   13.5060 H   0  0  0  0  0  0  0  0  0  0  0  0
    0.7380   25.5300   11.5280 H   0  0  0  0  0  0  0  0  0  0  0  0
   -0.5520   26.7950   11.6150 H   0  0  0  0  0  0  0  0  0  0  0  0
    6.1610   25.6330    4.6230 H   0  0  0  0  0  0  0  0  0  0  0  0
    4.4530   24.8530    8.5470 H   0  0  0  0  0  0  0  0  0  0  0  0
    3.0530   26.8510    8.3350 H   0  0  0  0  0  0  0  0  0  0  0  0
   -0.1700   32.6400    6.7720 H   0  0  0  0  0  0  0  0  0  0  0  0
    3.5030   29.2330    5.4740 H   0  0  0  0  0  0  0  0  0  0  0  0
    4.7670   27.6060    4.4140 H   0  0  0  0  0  0  0  0  0  0  0  0
    6.4310   23.7200    6.8420 S   0  0  0  0  0  0  0  0  0  0  0  0
    7.0960   23.9330    8.1230 O   0  0  0  0  0  0  0  0  0  0  0  0
    5.6830   22.4680    6.6920 O   0  0  0  0  0  0  0  0  0  0  0  0
    7.6710   23.7220    5.6730 N   0  0  0  0  0  0  0  0  0  0  0  0
    8.2410   24.5760    5.5450 H   0  0  0  0  0  0  0  0  0  0  0  0
    7.4920   23.0050    4.3880 C   0  0  0  0  0  0  0  0  0  0  0  0
    8.4960   22.9030    3.8910 H   0  0  0  0  0  0  0  0  0  0  0  0
    7.0940   21.9720    4.5610 H   0  0  0  0  0  0  0  0  0  0  0  0
    6.8110   23.5490    3.6800 H   0  0  0  0  0  0  0  0  0  0  0  0
  1 14  2  0  0  0  0
  1 21  1  0  0  0  0
  1 22  1  0  0  0  0
  2 18  2  0  0  0  0
  2 19  1  0  0  0  0
  2 25  1  0  0  0  0
  3  4  1  0  0  0  0
  3 16  1  0  0  0  0
  3 26  1  0  0  0  0
  3 27  1  0  0  0  0
  4  5  1  0  0  0  0
  4  9  1  0  0  0  0
  4 28  1  0  0  0  0
  5  6  1  0  0  0  0
  5 29  1  0  0  0  0
  5 30  1  0  0  0  0
  6  7  1  0  0  0  0
  6 31  1  0  0  0  0
  6 32  1  0  0  0  0
  7  8  1  0  0  0  0
  7 33  1  0  0  0  0
  7 34  1  0  0  0  0
  8  9  1  0  0  0  0
  8 35  1  0  0  0  0
  8 36  1  0  0  0  0
  9 37  1  0  0  0  0
  9 38  1  0  0  0  0
 10 11  2  0  0  0  0
 10 24  1  0  0  0  0
 10 39  1  0  0  0  0
 11 12  1  0  0  0  0
 11 45  1  0  0  0  0
 12 13  2  0  0  0  0
 12 40  1  0  0  0  0
 13 23  1  0  0  0  0
 13 41  1  0  0  0  0
 14 15  1  0  0  0  0
 15 16  1  0  0  0  0
 15 17  2  0  0  0  0
 17 18  1  0  0  0  0
 17 20  1  0  0  0  0
 19 20  1  0  0  0  0
 19 42  1  0  0  0  0
 20 21  2  0  0  0  0
 22 23  1  0  0  0  0
 22 43  1  0  0  0  0
 23 24  2  0  0  0  0
 24 44  1  0  0  0  0
 45 46  2  0  0  0  0
 45 47  2  0  0  0  0
 45 48  1  0  0  0  0
 48 49  1  0  0  0  0
 48 50  1  0  0  0  0
 50 51  1  0  0  0  0
 50 52  1  0  0  0  0
 50 53  1  0  0  0  0
M  END
$$$$
