p38a_2gg
 OpenBabel02232411163D
Structure written by MMmdl.
 48 51  0  0  0  0  0  0  0  0999 V2000
   36.4150   36.1220   15.6990 C   0  0  0  0  0  0  0  0  0  0  0  0
   34.4780   34.8970   21.0660 C   0  0  0  0  0  0  0  0  0  0  0  0
   35.7990   35.6030   16.8330 C   0  0  0  0  0  0  0  0  0  0  0  0
   33.8440   38.8210   23.8250 C   0  0  0  0  0  0  0  0  0  0  0  0
   34.7880   37.7380   21.4640 C   0  0  0  0  0  0  0  0  0  0  0  0
   35.3550   37.1240   20.2920 C   0  0  0  0  0  0  0  0  0  0  0  0
   37.7000   36.6520   15.8740 C   0  0  0  0  0  0  0  0  0  0  0  0
   38.3720   36.6540   17.0990 C   0  0  0  0  0  0  0  0  0  0  0  0
   37.7170   36.1630   18.2330 C   0  0  0  0  0  0  0  0  0  0  0  0
   34.1250   36.9350   22.4390 C   0  0  0  0  0  0  0  0  0  0  0  0
   34.8680   39.1290   21.7370 C   0  0  0  0  0  0  0  0  0  0  0  0
   35.2320   35.7860   20.1360 C   0  0  0  0  0  0  0  0  0  0  0  0
   36.4290   35.6380   18.0940 C   0  0  0  0  0  0  0  0  0  0  0  0
   33.2370   34.7600   23.2640 C   0  0  0  0  0  0  0  0  0  0  0  0
   34.5990   35.0440   16.7540 F   0  0  0  0  0  0  0  0  0  0  0  0
   35.7500   34.9800   19.1270 O   0  0  0  0  0  0  0  0  0  0  0  0
   34.4220   39.6850   22.8770 N   0  0  0  0  0  0  0  0  0  0  0  0
   34.2900   33.7130   20.8970 O   0  0  0  0  0  0  0  0  0  0  0  0
   33.9550   35.5570   22.2300 N   0  0  0  0  0  0  0  0  0  0  0  0
   33.6410   37.4740   23.6040 N   0  0  0  0  0  0  0  0  0  0  0  0
   33.5060   39.3420   25.0590 N   0  0  0  0  0  0  0  0  0  0  0  0
   35.9150   36.1370   14.7280 H   0  0  0  0  0  0  0  0  0  0  0  0
   35.8750   37.7670   19.5780 H   0  0  0  0  0  0  0  0  0  0  0  0
   39.3830   37.0590   17.1860 H   0  0  0  0  0  0  0  0  0  0  0  0
   38.2070   36.2170   19.2090 H   0  0  0  0  0  0  0  0  0  0  0  0
   35.3090   39.8110   20.9910 H   0  0  0  0  0  0  0  0  0  0  0  0
   33.8170   34.7710   24.2260 H   0  0  0  0  0  0  0  0  0  0  0  0
   32.2260   35.2110   23.4630 H   0  0  0  0  0  0  0  0  0  0  0  0
   33.1060   33.7020   22.9200 H   0  0  0  0  0  0  0  0  0  0  0  0
   33.5510   40.3680   25.2000 H   0  0  0  0  0  0  0  0  0  0  0  0
   38.2910   37.2100   14.8210 F   0  0  0  0  0  0  0  0  0  0  0  0
   32.8690   40.1190   28.0860 C   0  0  0  0  0  0  0  0  0  0  0  0
   31.9560   39.5340   27.0090 C   0  0  0  0  0  0  0  0  0  0  0  0
   32.6390   38.5710   26.0090 C   0  0  0  0  0  0  0  0  0  0  0  0
   33.4200   37.4380   26.7110 C   0  0  0  0  0  0  0  0  0  0  0  0
   34.4780   37.9180   27.7020 C   0  0  0  0  0  0  0  0  0  0  0  0
   32.2560   40.7470   28.7840 H   0  0  0  0  0  0  0  0  0  0  0  0
   33.5960   40.8240   27.5930 H   0  0  0  0  0  0  0  0  0  0  0  0
   31.5090   40.3790   26.4220 H   0  0  0  0  0  0  0  0  0  0  0  0
   31.1110   38.9700   27.4860 H   0  0  0  0  0  0  0  0  0  0  0  0
   31.8140   38.0790   25.4100 H   0  0  0  0  0  0  0  0  0  0  0  0
   32.6710   36.7760   27.2190 H   0  0  0  0  0  0  0  0  0  0  0  0
   33.9240   36.8100   25.9280 H   0  0  0  0  0  0  0  0  0  0  0  0
   35.0050   37.0180   28.1140 H   0  0  0  0  0  0  0  0  0  0  0  0
   35.2420   38.5200   27.1400 H   0  0  0  0  0  0  0  0  0  0  0  0
   33.7430   38.8770   28.9670 S   0  0  0  0  0  0  0  0  0  0  0  0
   32.8380   38.0630   29.8150 O   0  0  0  0  0  0  0  0  0  0  0  0
   34.7950   39.4990   29.8140 O   0  0  0  0  0  0  0  0  0  0  0  0
  1  3  2  0  0  0  0
  1  7  1  0  0  0  0
  1 22  1  0  0  0  0
  2 12  1  0  0  0  0
  2 18  2  0  0  0  0
  2 19  1  0  0  0  0
  3 13  1  0  0  0  0
  3 15  1  0  0  0  0
  4 17  2  0  0  0  0
  4 20  1  0  0  0  0
  4 21  1  0  0  0  0
  5  6  1  0  0  0  0
  5 10  1  0  0  0  0
  5 11  2  0  0  0  0
  6 12  2  0  0  0  0
  6 23  1  0  0  0  0
  7  8  2  0  0  0  0
  7 31  1  0  0  0  0
  8  9  1  0  0  0  0
  8 24  1  0  0  0  0
  9 13  2  0  0  0  0
  9 25  1  0  0  0  0
 10 19  1  0  0  0  0
 10 20  2  0  0  0  0
 11 17  1  0  0  0  0
 11 26  1  0  0  0  0
 12 16  1  0  0  0  0
 13 16  1  0  0  0  0
 14 19  1  0  0  0  0
 14 27  1  0  0  0  0
 14 28  1  0  0  0  0
 14 29  1  0  0  0  0
 21 30  1  0  0  0  0
 21 34  1  0  0  0  0
 32 33  1  0  0  0  0
 32 37  1  0  0  0  0
 32 38  1  0  0  0  0
 32 46  1  0  0  0  0
 33 34  1  0  0  0  0
 33 39  1  0  0  0  0
 33 40  1  0  0  0  0
 34 35  1  0  0  0  0
 34 41  1  0  0  0  0
 35 36  1  0  0  0  0
 35 42  1  0  0  0  0
 35 43  1  0  0  0  0
 36 44  1  0  0  0  0
 36 45  1  0  0  0  0
 36 46  1  0  0  0  0
 46 47  2  0  0  0  0
 46 48  2  0  0  0  0
M  END
$$$$
