p38a_2h
 OpenBabel02232411163D
Structure written by MMmdl.
 46 49  0  0  0  0  0  0  0  0999 V2000
   32.7420   39.8650   27.6220 C   0  0  0  0  0  0  0  0  0  0  0  0
   33.6300   40.8210   28.4270 C   0  0  0  0  0  0  0  0  0  0  0  0
   35.6040   39.5130   28.0220 C   0  0  0  0  0  0  0  0  0  0  0  0
   34.8280   38.4370   27.2610 C   0  0  0  0  0  0  0  0  0  0  0  0
   37.2410   35.6520   16.0880 C   0  0  0  0  0  0  0  0  0  0  0  0
   34.7670   40.1540   29.0140 O   0  0  0  0  0  0  0  0  0  0  0  0
   33.9900   35.1460   21.4300 C   0  0  0  0  0  0  0  0  0  0  0  0
   36.0280   35.4150   16.7320 C   0  0  0  0  0  0  0  0  0  0  0  0
   33.9930   39.1530   24.1680 C   0  0  0  0  0  0  0  0  0  0  0  0
   33.5270   38.9780   26.6340 C   0  0  0  0  0  0  0  0  0  0  0  0
   34.2710   37.9990   21.6780 C   0  0  0  0  0  0  0  0  0  0  0  0
   34.3730   37.3710   20.4010 C   0  0  0  0  0  0  0  0  0  0  0  0
   38.3230   36.0690   16.8730 C   0  0  0  0  0  0  0  0  0  0  0  0
   38.1830   36.2120   18.2560 C   0  0  0  0  0  0  0  0  0  0  0  0
   36.9560   35.9650   18.8830 C   0  0  0  0  0  0  0  0  0  0  0  0
   34.0130   37.2030   22.8410 C   0  0  0  0  0  0  0  0  0  0  0  0
   34.4080   39.4060   21.8700 C   0  0  0  0  0  0  0  0  0  0  0  0
   34.2330   36.0220   20.2890 C   0  0  0  0  0  0  0  0  0  0  0  0
   35.8620   35.5630   18.1160 C   0  0  0  0  0  0  0  0  0  0  0  0
   33.6650   35.0120   23.9540 C   0  0  0  0  0  0  0  0  0  0  0  0
   34.9750   35.0060   16.0260 F   0  0  0  0  0  0  0  0  0  0  0  0
   34.2540   35.2400   18.7270 S   0  0  0  0  0  0  0  0  0  0  0  0
   34.2760   39.9940   23.0610 N   0  0  0  0  0  0  0  0  0  0  0  0
   33.8550   33.9410   21.4230 O   0  0  0  0  0  0  0  0  0  0  0  0
   33.8920   35.8210   22.7240 N   0  0  0  0  0  0  0  0  0  0  0  0
   33.8760   37.7790   24.0820 N   0  0  0  0  0  0  0  0  0  0  0  0
   33.8060   39.7560   25.3820 N   0  0  0  0  0  0  0  0  0  0  0  0
   32.1950   39.1840   28.3220 H   0  0  0  0  0  0  0  0  0  0  0  0
   31.9810   40.4660   27.0670 H   0  0  0  0  0  0  0  0  0  0  0  0
   34.0010   41.6520   27.7880 H   0  0  0  0  0  0  0  0  0  0  0  0
   33.0890   41.2090   29.3210 H   0  0  0  0  0  0  0  0  0  0  0  0
   36.4090   39.0680   28.6500 H   0  0  0  0  0  0  0  0  0  0  0  0
   35.9960   40.2910   27.3300 H   0  0  0  0  0  0  0  0  0  0  0  0
   35.4810   37.9950   26.4690 H   0  0  0  0  0  0  0  0  0  0  0  0
   34.5460   37.6080   27.9610 H   0  0  0  0  0  0  0  0  0  0  0  0
   37.3470   35.5470   15.0090 H   0  0  0  0  0  0  0  0  0  0  0  0
   32.8740   38.0980   26.3540 H   0  0  0  0  0  0  0  0  0  0  0  0
   34.5790   38.0110   19.5330 H   0  0  0  0  0  0  0  0  0  0  0  0
   39.0360   36.5460   18.8470 H   0  0  0  0  0  0  0  0  0  0  0  0
   36.8710   36.1090   19.9610 H   0  0  0  0  0  0  0  0  0  0  0  0
   34.6320   40.0520   21.0030 H   0  0  0  0  0  0  0  0  0  0  0  0
   34.4800   35.2120   24.7020 H   0  0  0  0  0  0  0  0  0  0  0  0
   32.6830   35.2890   24.4230 H   0  0  0  0  0  0  0  0  0  0  0  0
   33.6610   33.9200   23.7050 H   0  0  0  0  0  0  0  0  0  0  0  0
   33.8910   40.7880   25.4650 H   0  0  0  0  0  0  0  0  0  0  0  0
   39.2760   36.3060   16.4050 H   0  0  0  0  0  0  0  0  0  0  0  0
  1  2  1  0  0  0  0
  1 10  1  0  0  0  0
  1 28  1  0  0  0  0
  1 29  1  0  0  0  0
  2  6  1  0  0  0  0
  2 30  1  0  0  0  0
  2 31  1  0  0  0  0
  3  4  1  0  0  0  0
  3  6  1  0  0  0  0
  3 32  1  0  0  0  0
  3 33  1  0  0  0  0
  4 10  1  0  0  0  0
  4 34  1  0  0  0  0
  4 35  1  0  0  0  0
  5  8  2  0  0  0  0
  5 13  1  0  0  0  0
  5 36  1  0  0  0  0
  7 18  1  0  0  0  0
  7 24  2  0  0  0  0
  7 25  1  0  0  0  0
  8 19  1  0  0  0  0
  8 21  1  0  0  0  0
  9 23  2  0  0  0  0
  9 26  1  0  0  0  0
  9 27  1  0  0  0  0
 10 27  1  0  0  0  0
 10 37  1  0  0  0  0
 11 12  1  0  0  0  0
 11 16  1  0  0  0  0
 11 17  2  0  0  0  0
 12 18  2  0  0  0  0
 12 38  1  0  0  0  0
 13 14  2  0  0  0  0
 13 46  1  0  0  0  0
 14 15  1  0  0  0  0
 14 39  1  0  0  0  0
 15 19  2  0  0  0  0
 15 40  1  0  0  0  0
 16 25  1  0  0  0  0
 16 26  2  0  0  0  0
 17 23  1  0  0  0  0
 17 41  1  0  0  0  0
 18 22  1  0  0  0  0
 19 22  1  0  0  0  0
 20 25  1  0  0  0  0
 20 42  1  0  0  0  0
 20 43  1  0  0  0  0
 20 44  1  0  0  0  0
 27 45  1  0  0  0  0
M  END
$$$$
