p38a_2s
 OpenBabel02232411163D
Structure written by MMmdl.
 54 57  0  0  1  0  0  0  0  0999 V2000
   37.9480   36.2390   17.4270 C   0  0  0  0  0  0  0  0  0  0  0  0
   33.7250   34.2700   20.7930 C   0  0  0  0  0  0  0  0  0  0  0  0
   37.0520   35.6600   18.3210 C   0  0  0  0  0  0  0  0  0  0  0  0
   33.0090   38.1460   23.5930 C   0  0  0  0  0  0  0  0  0  0  0  0
   33.7450   37.1140   21.1610 C   0  0  0  0  0  0  0  0  0  0  0  0
   34.2990   36.5590   19.9610 C   0  0  0  0  0  0  0  0  0  0  0  0
   37.4670   36.4790   16.1320 C   0  0  0  0  0  0  0  0  0  0  0  0
   36.1670   36.1710   15.7270 C   0  0  0  0  0  0  0  0  0  0  0  0
   35.2920   35.5700   16.6400 C   0  0  0  0  0  0  0  0  0  0  0  0
   33.2000   36.2720   22.1800 C   0  0  0  0  0  0  0  0  0  0  0  0
   33.7960   38.5120   21.4130 C   0  0  0  0  0  0  0  0  0  0  0  0
   34.3380   35.2150   19.8260 C   0  0  0  0  0  0  0  0  0  0  0  0
   35.7460   35.2890   17.9310 C   0  0  0  0  0  0  0  0  0  0  0  0
   37.4270   35.4310   19.5720 F   0  0  0  0  0  0  0  0  0  0  0  0
   34.9450   34.5110   18.7830 O   0  0  0  0  0  0  0  0  0  0  0  0
   33.4390   39.0380   22.5870 N   0  0  0  0  0  0  0  0  0  0  0  0
   33.7530   33.0610   20.7070 O   0  0  0  0  0  0  0  0  0  0  0  0
   33.0640   34.8870   21.9250 N   0  0  0  0  0  0  0  0  0  0  0  0
   32.8570   36.7810   23.4080 N   0  0  0  0  0  0  0  0  0  0  0  0
   32.7220   38.7410   24.7970 N   0  0  0  0  0  0  0  0  0  0  0  0
   38.9620   36.5290   17.7190 H   0  0  0  0  0  0  0  0  0  0  0  0
   34.7100   37.2450   19.2130 H   0  0  0  0  0  0  0  0  0  0  0  0
   35.8170   36.4050   14.7190 H   0  0  0  0  0  0  0  0  0  0  0  0
   34.2650   35.3400   16.3380 H   0  0  0  0  0  0  0  0  0  0  0  0
   34.1560   39.2080   20.6340 H   0  0  0  0  0  0  0  0  0  0  0  0
   32.9160   39.7600   24.9030 H   0  0  0  0  0  0  0  0  0  0  0  0
   38.2840   37.0630   15.2580 F   0  0  0  0  0  0  0  0  0  0  0  0
   31.0320   38.0840   28.1470 C   0  0  0  0  0  0  0  0  0  0  0  0
   31.3060   38.7590   26.7990 C   0  0  0  0  0  0  0  0  0  0  0  0
   32.4220   37.9960   26.0530 C   0  0  0  0  0  0  0  0  0  0  0  0
   33.6800   37.9120   26.9450 C   0  0  0  0  0  0  0  0  0  0  0  0
   33.3160   37.2970   28.3020 C   0  0  0  0  0  0  0  0  0  0  0  0
   32.2330   38.0050   28.9480 O   0  0  0  0  0  0  0  0  0  0  0  0
   30.6190   37.0590   28.0080 H   0  0  0  0  0  0  0  0  0  0  0  0
   30.3640   38.7070   28.7860 H   0  0  0  0  0  0  0  0  0  0  0  0
   31.6290   39.8150   26.9660 H   0  0  0  0  0  0  0  0  0  0  0  0
   30.3790   38.7670   26.1820 H   0  0  0  0  0  0  0  0  0  0  0  0
   32.0700   36.9590   25.7970 H   0  0  0  0  0  0  0  0  0  0  0  0
   34.4590   37.2780   26.4550 H   0  0  0  0  0  0  0  0  0  0  0  0
   34.1120   38.9320   27.0930 H   0  0  0  0  0  0  0  0  0  0  0  0
   33.0280   36.2250   28.1910 H   0  0  0  0  0  0  0  0  0  0  0  0
   34.1470   37.4200   29.0350 H   0  0  0  0  0  0  0  0  0  0  0  0
   32.3280   33.9830   22.8670 C   0  0  0  0  0  0  0  0  0  0  0  0
   32.8180   32.9690   22.8320 H   0  0  0  0  0  0  0  0  0  0  0  0
   32.4140   34.3890   23.9190 H   0  0  0  0  0  0  0  0  0  0  0  0
   30.8230   33.8460   22.5300 C   0  0  2  0  0  0  0  0  0  0  0  0
   30.1840   34.7700   23.4190 O   0  0  0  0  0  0  0  0  0  0  0  0
   29.1900   34.7520   23.2300 H   0  0  0  0  0  0  0  0  0  0  0  0
   30.2410   32.4330   22.8120 C   0  0  0  0  0  0  0  0  0  0  0  0
   30.6130   32.0030   23.7690 H   0  0  0  0  0  0  0  0  0  0  0  0
   30.4120   31.7520   21.9500 H   0  0  0  0  0  0  0  0  0  0  0  0
   30.5620   34.1320   21.4860 H   0  0  0  0  0  0  0  0  0  0  0  0
   28.8220   32.5680   23.0360 O   0  0  0  0  0  0  0  0  0  0  0  0
   28.3770   32.6790   22.1350 H   0  0  0  0  0  0  0  0  0  0  0  0
  1  3  2  0  0  0  0
  1  7  1  0  0  0  0
  1 21  1  0  0  0  0
  2 12  1  0  0  0  0
  2 17  2  0  0  0  0
  2 18  1  0  0  0  0
  3 13  1  0  0  0  0
  3 14  1  0  0  0  0
  4 16  2  0  0  0  0
  4 19  1  0  0  0  0
  4 20  1  0  0  0  0
  5  6  1  0  0  0  0
  5 10  1  0  0  0  0
  5 11  2  0  0  0  0
  6 12  2  0  0  0  0
  6 22  1  0  0  0  0
  7  8  2  0  0  0  0
  7 27  1  0  0  0  0
  8  9  1  0  0  0  0
  8 23  1  0  0  0  0
  9 13  2  0  0  0  0
  9 24  1  0  0  0  0
 10 18  1  0  0  0  0
 10 19  2  0  0  0  0
 11 16  1  0  0  0  0
 11 25  1  0  0  0  0
 12 15  1  0  0  0  0
 13 15  1  0  0  0  0
 18 43  1  0  0  0  0
 20 26  1  0  0  0  0
 20 30  1  0  0  0  0
 28 29  1  0  0  0  0
 28 33  1  0  0  0  0
 28 34  1  0  0  0  0
 28 35  1  0  0  0  0
 29 30  1  0  0  0  0
 29 36  1  0  0  0  0
 29 37  1  0  0  0  0
 30 31  1  0  0  0  0
 30 38  1  0  0  0  0
 31 32  1  0  0  0  0
 31 39  1  0  0  0  0
 31 40  1  0  0  0  0
 32 33  1  0  0  0  0
 32 41  1  0  0  0  0
 32 42  1  0  0  0  0
 43 44  1  0  0  0  0
 43 45  1  0  0  0  0
 43 46  1  0  0  0  0
 46 47  1  0  0  0  0
 46 49  1  0  0  0  0
 46 52  1  1  0  0  0
 47 48  1  0  0  0  0
 49 50  1  0  0  0  0
 49 51  1  0  0  0  0
 49 53  1  0  0  0  0
 53 54  1  0  0  0  0
M  END
$$$$
