30
 OpenBabel02232411163D
Structure written by MMmdl.
 41 43  0  0  0  0  0  0  0  0999 V2000
    3.7350  -50.1050    5.9310 O   0  0  0  0  0  0  0  0  0  0  0  0
    3.0220  -49.2440    6.4850 C   0  0  0  0  0  0  0  0  0  0  0  0
    3.4140  -48.2460    7.1030 O   0  5  0  0  0  0  0  0  0  0  0  0
    1.5060  -49.5060    6.3880 C   0  0  0  0  0  0  0  0  0  0  0  0
   -0.3790  -50.7970    6.5440 C   0  0  0  0  0  0  0  0  0  0  0  0
   -1.3220  -51.8140    6.7740 C   0  0  0  0  0  0  0  0  0  0  0  0
   -2.6440  -51.5420    6.4560 C   0  0  0  0  0  0  0  0  0  0  0  0
   -3.0280  -50.2910    5.9160 C   0  0  0  0  0  0  0  0  0  0  0  0
   -2.1010  -49.2830    5.6890 C   0  0  0  0  0  0  0  0  0  0  0  0
   -0.7520  -49.5120    6.0080 C   0  0  0  0  0  0  0  0  0  0  0  0
    0.4550  -48.7150    5.9370 C   0  0  0  0  0  0  0  0  0  0  0  0
    0.4840  -47.3040    5.4690 C   0  0  0  0  0  0  0  0  0  0  0  0
    0.3910  -46.2870    6.6220 C   0  0  0  0  0  0  0  0  0  0  0  0
   -0.9310  -46.3340    7.3850 C   0  0  0  0  0  0  0  0  0  0  0  0
   -1.9080  -45.7470    6.4480 O   0  0  0  0  0  0  0  0  0  0  0  0
   -3.1650  -45.4810    6.9040 C   0  0  0  0  0  0  0  0  0  0  0  0
   -3.6890  -45.9350    8.1230 C   0  0  0  0  0  0  0  0  0  0  0  0
   -5.0020  -45.5790    8.4740 C   0  0  0  0  0  0  0  0  0  0  0  0
   -5.7670  -44.7750    7.6190 C   0  0  0  0  0  0  0  0  0  0  0  0
   -5.2300  -44.3430    6.3980 C   0  0  0  0  0  0  0  0  0  0  0  0
   -3.9370  -44.6880    6.0220 C   0  0  0  0  0  0  0  0  0  0  0  0
   -1.0330  -52.7790    7.1900 H   0  0  0  0  0  0  0  0  0  0  0  0
   -3.4120  -52.2990    6.6240 H   0  0  0  0  0  0  0  0  0  0  0  0
   -4.0800  -50.1270    5.6790 H   0  0  0  0  0  0  0  0  0  0  0  0
   -2.4240  -48.3270    5.2750 H   0  0  0  0  0  0  0  0  0  0  0  0
   -0.3900  -47.1320    4.7880 H   0  0  0  0  0  0  0  0  0  0  0  0
    1.4210  -47.0970    4.8990 H   0  0  0  0  0  0  0  0  0  0  0  0
    0.5060  -45.2580    6.2050 H   0  0  0  0  0  0  0  0  0  0  0  0
    1.2120  -46.4830    7.3540 H   0  0  0  0  0  0  0  0  0  0  0  0
   -0.9090  -45.6810    8.2840 H   0  0  0  0  0  0  0  0  0  0  0  0
   -1.2740  -47.3670    7.6050 H   0  0  0  0  0  0  0  0  0  0  0  0
   -3.1190  -46.5700    8.7930 H   0  0  0  0  0  0  0  0  0  0  0  0
   -3.5250  -44.3610    5.0720 H   0  0  0  0  0  0  0  0  0  0  0  0
    1.0070  -50.7680    6.7670 N   0  0  0  0  0  0  0  0  0  0  0  0
    1.5300  -51.5560    7.1320 H   0  0  0  0  0  0  0  0  0  0  0  0
   -5.8420  -43.7290    5.7340 H   0  0  0  0  0  0  0  0  0  0  0  0
   -6.7820  -44.4970    7.8890 H   0  0  0  0  0  0  0  0  0  0  0  0
   -5.5740  -46.0820    9.7640 C   0  0  0  0  0  0  0  0  0  0  0  0
   -6.4450  -45.4720   10.0930 H   0  0  0  0  0  0  0  0  0  0  0  0
   -5.9170  -47.1380    9.6280 H   0  0  0  0  0  0  0  0  0  0  0  0
   -4.8070  -46.0740   10.5680 H   0  0  0  0  0  0  0  0  0  0  0  0
  1  2  2  0  0  0  0
  2  3  1  0  0  0  0
  2  4  1  0  0  0  0
  4 11  2  0  0  0  0
  4 34  1  0  0  0  0
  5  6  2  0  0  0  0
  5 10  1  0  0  0  0
  5 34  1  0  0  0  0
  6  7  1  0  0  0  0
  6 22  1  0  0  0  0
  7  8  2  0  0  0  0
  7 23  1  0  0  0  0
  8  9  1  0  0  0  0
  8 24  1  0  0  0  0
  9 10  2  0  0  0  0
  9 25  1  0  0  0  0
 10 11  1  0  0  0  0
 11 12  1  0  0  0  0
 12 26  1  0  0  0  0
 12 27  1  0  0  0  0
 12 13  1  0  0  0  0
 13 14  1  0  0  0  0
 13 28  1  0  0  0  0
 13 29  1  0  0  0  0
 14 15  1  0  0  0  0
 14 30  1  0  0  0  0
 14 31  1  0  0  0  0
 15 16  1  0  0  0  0
 16 17  2  0  0  0  0
 16 21  1  0  0  0  0
 17 18  1  0  0  0  0
 17 32  1  0  0  0  0
 18 19  2  0  0  0  0
 18 38  1  0  0  0  0
 19 20  1  0  0  0  0
 19 37  1  0  0  0  0
 20 21  2  0  0  0  0
 20 36  1  0  0  0  0
 21 33  1  0  0  0  0
 34 35  1  0  0  0  0
 38 39  1  0  0  0  0
 38 40  1  0  0  0  0
 38 41  1  0  0  0  0
M  CHG  1   3  -1
M  END
$$$$
