p38a_3fmk
 OpenBabel02232411163D
Structure written by MMmdl.
 46 49  0  0  1  0  0  0  0  0999 V2000
   35.7070   35.5430   17.0150 C   0  0  0  0  0  0  0  0  0  0  0  0
   36.3470   36.0060   15.8690 C   0  0  0  0  0  0  0  0  0  0  0  0
   33.3040   35.0970   23.6030 C   0  0  0  0  0  0  0  0  0  0  0  0
   38.3020   36.5420   17.2710 C   0  0  0  0  0  0  0  0  0  0  0  0
   34.7790   39.3430   21.6220 C   0  0  0  0  0  0  0  0  0  0  0  0
   32.5150   39.3890   25.9520 C   0  0  1  0  0  0  0  0  0  0  0  0
   33.2310   38.3120   26.8170 C   0  0  0  0  0  0  0  0  0  0  0  0
   33.7830   39.2200   23.7430 C   0  0  0  0  0  0  0  0  0  0  0  0
   34.4440   35.0660   21.3480 C   0  0  0  0  0  0  0  0  0  0  0  0
   35.1440   35.8780   20.3150 C   0  0  0  0  0  0  0  0  0  0  0  0
   35.2500   37.2260   20.3560 C   0  0  0  0  0  0  0  0  0  0  0  0
   36.3250   35.6030   18.2800 C   0  0  0  0  0  0  0  0  0  0  0  0
   37.6240   36.1020   18.4130 C   0  0  0  0  0  0  0  0  0  0  0  0
   34.7200   37.9290   21.4930 C   0  0  0  0  0  0  0  0  0  0  0  0
   34.1150   37.2110   22.5650 C   0  0  0  0  0  0  0  0  0  0  0  0
   33.3970   39.9110   24.8720 N   0  0  0  0  0  0  0  0  0  0  0  0
   37.6400   36.5170   16.0400 C   0  0  0  0  0  0  0  0  0  0  0  0
   38.2520   37.0370   14.9780 F   0  0  0  0  0  0  0  0  0  0  0  0
   34.4930   35.0140   16.9400 F   0  0  0  0  0  0  0  0  0  0  0  0
   35.6190   35.0090   19.3360 O   0  0  0  0  0  0  0  0  0  0  0  0
   34.2510   33.8710   21.2860 O   0  0  0  0  0  0  0  0  0  0  0  0
   33.9770   35.8150   22.4840 N   0  0  0  0  0  0  0  0  0  0  0  0
   33.6510   37.8490   23.6900 N   0  0  0  0  0  0  0  0  0  0  0  0
   34.3380   39.9980   22.7050 N   0  0  0  0  0  0  0  0  0  0  0  0
   31.1930   38.8300   25.4210 C   0  0  0  0  0  0  0  0  0  0  0  0
   34.2650   38.9150   27.6870 N   0  0  0  0  0  0  0  0  0  0  0  0
   33.9880   39.3920   28.9360 N   0  0  0  0  0  0  0  0  0  0  0  0
   35.1720   39.9050   29.3720 C   0  0  0  0  0  0  0  0  0  0  0  0
   36.1520   39.7240   28.3590 N   0  0  0  0  0  0  0  0  0  0  0  0
   35.5790   39.1310   27.3590 N   0  0  0  0  0  0  0  0  0  0  0  0
   35.8600   35.9960   14.8910 H   0  0  0  0  0  0  0  0  0  0  0  0
   33.8690   35.2640   24.5600 H   0  0  0  0  0  0  0  0  0  0  0  0
   32.2600   35.4900   23.7380 H   0  0  0  0  0  0  0  0  0  0  0  0
   33.2570   33.9980   23.3920 H   0  0  0  0  0  0  0  0  0  0  0  0
   39.3220   36.9280   17.3500 H   0  0  0  0  0  0  0  0  0  0  0  0
   35.1930   39.9470   20.7990 H   0  0  0  0  0  0  0  0  0  0  0  0
   32.2870   40.2850   26.6060 H   0  0  0  0  0  0  0  0  0  0  0  0
   32.4600   37.8030   27.4680 H   0  0  0  0  0  0  0  0  0  0  0  0
   33.7050   37.5260   26.1630 H   0  0  0  0  0  0  0  0  0  0  0  0
   35.7310   37.8110   19.5680 H   0  0  0  0  0  0  0  0  0  0  0  0
   38.1060   36.1720   19.3910 H   0  0  0  0  0  0  0  0  0  0  0  0
   33.5200   40.9420   24.8920 H   0  0  0  0  0  0  0  0  0  0  0  0
   30.6990   39.5710   24.7530 H   0  0  0  0  0  0  0  0  0  0  0  0
   31.3450   37.8770   24.8610 H   0  0  0  0  0  0  0  0  0  0  0  0
   30.5090   38.6220   26.2780 H   0  0  0  0  0  0  0  0  0  0  0  0
   35.3560   40.3780   30.3350 H   0  0  0  0  0  0  0  0  0  0  0  0
  1  2  2  0  0  0  0
  1 12  1  0  0  0  0
  1 19  1  0  0  0  0
  2 17  1  0  0  0  0
  2 31  1  0  0  0  0
  3 22  1  0  0  0  0
  3 32  1  0  0  0  0
  3 33  1  0  0  0  0
  3 34  1  0  0  0  0
  4 13  1  0  0  0  0
  4 17  2  0  0  0  0
  4 35  1  0  0  0  0
  5 14  2  0  0  0  0
  5 24  1  0  0  0  0
  5 36  1  0  0  0  0
  6  7  1  0  0  0  0
  6 16  1  0  0  0  0
  6 25  1  0  0  0  0
  6 37  1  6  0  0  0
  7 26  1  0  0  0  0
  7 38  1  0  0  0  0
  7 39  1  0  0  0  0
  8 16  1  0  0  0  0
  8 23  1  0  0  0  0
  8 24  2  0  0  0  0
  9 10  1  0  0  0  0
  9 21  2  0  0  0  0
  9 22  1  0  0  0  0
 10 11  2  0  0  0  0
 10 20  1  0  0  0  0
 11 14  1  0  0  0  0
 11 40  1  0  0  0  0
 12 13  2  0  0  0  0
 12 20  1  0  0  0  0
 13 41  1  0  0  0  0
 14 15  1  0  0  0  0
 15 22  1  0  0  0  0
 15 23  2  0  0  0  0
 16 42  1  0  0  0  0
 17 18  1  0  0  0  0
 25 43  1  0  0  0  0
 25 44  1  0  0  0  0
 25 45  1  0  0  0  0
 26 27  1  0  0  0  0
 26 30  1  0  0  0  0
 27 28  2  0  0  0  0
 28 29  1  0  0  0  0
 28 46  1  0  0  0  0
 29 30  2  0  0  0  0
M  END
$$$$
