18629-1
 OpenBabel02232411163D
Structure written by MMmdl.
 41 42  0  0  0  0  0  0  0  0999 V2000
   23.2130   10.8820   29.0600 C   0  0  0  0  0  0  0  0  0  0  0  0
   23.4820   11.0900   30.5350 C   0  0  0  0  0  0  0  0  0  0  0  0
   22.2140   11.1550   31.2910 O   0  0  0  0  0  0  0  0  0  0  0  0
   21.5690   10.0140   31.6170 C   0  0  0  0  0  0  0  0  0  0  0  0
   22.0410    8.8260   31.1740 N   0  0  0  0  0  0  0  0  0  0  0  0
   21.3090    7.6890   31.4820 C   0  0  0  0  0  0  0  0  0  0  0  0
   20.1510    7.7260   32.2520 C   0  0  0  0  0  0  0  0  0  0  0  0
   19.6710    8.9760   32.7280 C   0  0  0  0  0  0  0  0  0  0  0  0
   18.5180    9.0250   33.4700 N   0  0  0  0  0  0  0  0  0  0  0  0
   20.3900   10.1720   32.4050 C   0  0  0  0  0  0  0  0  0  0  0  0
   19.9900   11.4700   32.7860 C   0  0  0  0  0  0  0  0  0  0  0  0
   19.7140   12.5640   33.0570 N   0  0  0  0  0  0  0  0  0  0  0  0
   21.8800    6.5340   30.8980 N   0  0  0  0  0  0  0  0  0  0  0  0
   21.3320    5.2270   30.8730 C   0  0  0  0  0  0  0  0  0  0  0  0
   20.2910    4.9470   31.4260 O   0  0  0  0  0  0  0  0  0  0  0  0
   22.1520    4.2530   30.0410 C   0  0  0  0  0  0  0  0  0  0  0  0
   23.4960    3.9740   30.6630 C   0  0  0  0  0  0  0  0  0  0  0  0
   23.6190    2.9730   31.6350 C   0  0  0  0  0  0  0  0  0  0  0  0
   24.8490    2.7480   32.2730 C   0  0  0  0  0  0  0  0  0  0  0  0
   24.9760    1.7170   33.3460 C   0  0  0  0  0  0  0  0  0  0  0  0
   25.9680    3.5120   31.8990 C   0  0  0  0  0  0  0  0  0  0  0  0
   25.8520    4.4820   30.9030 C   0  0  0  0  0  0  0  0  0  0  0  0
   24.6220    4.7180   30.2820 C   0  0  0  0  0  0  0  0  0  0  0  0
   22.8670    9.8420   28.8520 H   0  0  0  0  0  0  0  0  0  0  0  0
   22.4470   11.5960   28.6820 H   0  0  0  0  0  0  0  0  0  0  0  0
   24.1570   11.0520   28.4850 H   0  0  0  0  0  0  0  0  0  0  0  0
   23.8680   12.1160   30.7520 H   0  0  0  0  0  0  0  0  0  0  0  0
   24.1320   10.2950   30.9640 H   0  0  0  0  0  0  0  0  0  0  0  0
   19.5960    6.8140   32.4830 H   0  0  0  0  0  0  0  0  0  0  0  0
   18.0190    8.1570   33.7460 H   0  0  0  0  0  0  0  0  0  0  0  0
   18.1270    9.9120   33.7870 H   0  0  0  0  0  0  0  0  0  0  0  0
   22.7820    6.6970   30.4050 H   0  0  0  0  0  0  0  0  0  0  0  0
   21.5790    3.2930   29.9430 H   0  0  0  0  0  0  0  0  0  0  0  0
   22.2850    4.6830   29.0140 H   0  0  0  0  0  0  0  0  0  0  0  0
   22.7590    2.3540   31.8940 H   0  0  0  0  0  0  0  0  0  0  0  0
   25.1580    2.2120   34.3330 H   0  0  0  0  0  0  0  0  0  0  0  0
   24.0600    1.0860   33.4380 H   0  0  0  0  0  0  0  0  0  0  0  0
   25.8410    1.0370   33.1390 H   0  0  0  0  0  0  0  0  0  0  0  0
   26.9320    3.3450   32.3850 H   0  0  0  0  0  0  0  0  0  0  0  0
   26.7300    5.0650   30.6050 H   0  0  0  0  0  0  0  0  0  0  0  0
   24.5610    5.4790   29.5020 H   0  0  0  0  0  0  0  0  0  0  0  0
  1  2  1  0  0  0  0
  1 24  1  0  0  0  0
  1 25  1  0  0  0  0
  1 26  1  0  0  0  0
  2  3  1  0  0  0  0
  2 27  1  0  0  0  0
  2 28  1  0  0  0  0
  3  4  1  0  0  0  0
  4 10  2  0  0  0  0
  4  5  1  0  0  0  0
  5  6  2  0  0  0  0
  6  7  1  0  0  0  0
  6 13  1  0  0  0  0
  7  8  2  0  0  0  0
  7 29  1  0  0  0  0
  8  9  1  0  0  0  0
  8 10  1  0  0  0  0
  9 30  1  0  0  0  0
  9 31  1  0  0  0  0
 10 11  1  0  0  0  0
 11 12  3  0  0  0  0
 13 14  1  0  0  0  0
 13 32  1  0  0  0  0
 14 15  2  0  0  0  0
 14 16  1  0  0  0  0
 16 17  1  0  0  0  0
 16 33  1  0  0  0  0
 16 34  1  0  0  0  0
 17 23  2  0  0  0  0
 17 18  1  0  0  0  0
 18 19  2  0  0  0  0
 18 35  1  0  0  0  0
 19 20  1  0  0  0  0
 19 21  1  0  0  0  0
 20 36  1  0  0  0  0
 20 37  1  0  0  0  0
 20 38  1  0  0  0  0
 21 22  2  0  0  0  0
 21 39  1  0  0  0  0
 22 23  1  0  0  0  0
 22 40  1  0  0  0  0
 23 41  1  0  0  0  0
M  END
$$$$
