p38a_2aa
 OpenBabel02232411163D
Structure written by MMmdl.
 43 45  0  0  0  0  0  0  0  0999 V2000
   38.2590   36.5250   17.1620 C   0  0  0  0  0  0  0  0  0  0  0  0
   34.5880   35.1090   21.2380 C   0  0  0  0  0  0  0  0  0  0  0  0
   37.4550   36.0740   18.2050 C   0  0  0  0  0  0  0  0  0  0  0  0
   33.9870   39.1910   23.7490 C   0  0  0  0  0  0  0  0  0  0  0  0
   33.5710   39.1960   26.2290 C   0  0  0  0  0  0  0  0  0  0  0  0
   34.6230   37.9880   21.3590 C   0  0  0  0  0  0  0  0  0  0  0  0
   34.9830   37.3290   20.1330 C   0  0  0  0  0  0  0  0  0  0  0  0
   37.6270   36.7080   15.9240 C   0  0  0  0  0  0  0  0  0  0  0  0
   36.2740   36.4380   15.7010 C   0  0  0  0  0  0  0  0  0  0  0  0
   35.4910   35.9720   16.7630 C   0  0  0  0  0  0  0  0  0  0  0  0
   34.3430   37.2180   22.5270 C   0  0  0  0  0  0  0  0  0  0  0  0
   34.5480   39.4010   21.4820 C   0  0  0  0  0  0  0  0  0  0  0  0
   34.9960   35.9770   20.1010 C   0  0  0  0  0  0  0  0  0  0  0  0
   36.0880   35.7810   18.0120 C   0  0  0  0  0  0  0  0  0  0  0  0
   34.0800   35.0380   23.7110 C   0  0  0  0  0  0  0  0  0  0  0  0
   37.9710   35.9160   19.4170 F   0  0  0  0  0  0  0  0  0  0  0  0
   35.3450   35.1610   19.0260 O   0  0  0  0  0  0  0  0  0  0  0  0
   34.2450   40.0130   22.6380 N   0  0  0  0  0  0  0  0  0  0  0  0
   34.4490   33.9070   21.1940 O   0  0  0  0  0  0  0  0  0  0  0  0
   34.3490   35.8170   22.4690 N   0  0  0  0  0  0  0  0  0  0  0  0
   34.0510   37.8190   23.7300 N   0  0  0  0  0  0  0  0  0  0  0  0
   33.5280   39.8390   24.8920 N   0  0  0  0  0  0  0  0  0  0  0  0
   39.3170   36.7630   17.3080 H   0  0  0  0  0  0  0  0  0  0  0  0
   34.8870   39.5140   26.9850 C   0  0  0  0  0  0  0  0  0  0  0  0
   35.2440   37.9460   19.2700 H   0  0  0  0  0  0  0  0  0  0  0  0
   35.8170   36.6010   14.7230 H   0  0  0  0  0  0  0  0  0  0  0  0
   34.4250   35.7760   16.6090 H   0  0  0  0  0  0  0  0  0  0  0  0
   34.7380   40.0450   20.6070 H   0  0  0  0  0  0  0  0  0  0  0  0
   34.8070   35.3340   24.5150 H   0  0  0  0  0  0  0  0  0  0  0  0
   33.0400   35.2480   24.0800 H   0  0  0  0  0  0  0  0  0  0  0  0
   34.1840   33.9400   23.5110 H   0  0  0  0  0  0  0  0  0  0  0  0
   33.6700   40.8700   24.9430 H   0  0  0  0  0  0  0  0  0  0  0  0
   38.3450   37.2010   14.9180 F   0  0  0  0  0  0  0  0  0  0  0  0
   32.3540   39.7120   27.0460 C   0  0  0  0  0  0  0  0  0  0  0  0
   31.1270   39.2680   26.4700 O   0  0  0  0  0  0  0  0  0  0  0  0
   30.9220   39.8110   25.6700 H   0  0  0  0  0  0  0  0  0  0  0  0
   32.3510   39.2330   28.0570 H   0  0  0  0  0  0  0  0  0  0  0  0
   32.3660   40.8230   27.1220 H   0  0  0  0  0  0  0  0  0  0  0  0
   35.3920   40.8340   26.7430 O   0  0  0  0  0  0  0  0  0  0  0  0
   34.7440   39.4010   28.0870 H   0  0  0  0  0  0  0  0  0  0  0  0
   35.7210   38.8640   26.6260 H   0  0  0  0  0  0  0  0  0  0  0  0
   34.6470   41.4940   26.6590 H   0  0  0  0  0  0  0  0  0  0  0  0
   33.4790   38.0740   26.1340 H   0  0  0  0  0  0  0  0  0  0  0  0
  1  3  2  0  0  0  0
  1  8  1  0  0  0  0
  1 23  1  0  0  0  0
  2 13  1  0  0  0  0
  2 19  2  0  0  0  0
  2 20  1  0  0  0  0
  3 14  1  0  0  0  0
  3 16  1  0  0  0  0
  4 18  2  0  0  0  0
  4 21  1  0  0  0  0
  4 22  1  0  0  0  0
  5 22  1  0  0  0  0
  5 24  1  0  0  0  0
  5 34  1  0  0  0  0
  5 43  1  0  0  0  0
  6  7  1  0  0  0  0
  6 11  1  0  0  0  0
  6 12  2  0  0  0  0
  7 13  2  0  0  0  0
  7 25  1  0  0  0  0
  8  9  2  0  0  0  0
  8 33  1  0  0  0  0
  9 10  1  0  0  0  0
  9 26  1  0  0  0  0
 10 14  2  0  0  0  0
 10 27  1  0  0  0  0
 11 20  1  0  0  0  0
 11 21  2  0  0  0  0
 12 18  1  0  0  0  0
 12 28  1  0  0  0  0
 13 17  1  0  0  0  0
 14 17  1  0  0  0  0
 15 20  1  0  0  0  0
 15 29  1  0  0  0  0
 15 30  1  0  0  0  0
 15 31  1  0  0  0  0
 22 32  1  0  0  0  0
 24 39  1  0  0  0  0
 24 40  1  0  0  0  0
 24 41  1  0  0  0  0
 34 35  1  0  0  0  0
 34 37  1  0  0  0  0
 34 38  1  0  0  0  0
 35 36  1  0  0  0  0
 39 42  1  0  0  0  0
M  END
$$$$
