28
 OpenBabel02232411153D
Structure written by MMmdl.
 53 56  0  0  0  0  0  0  0  0999 V2000
    1.7180   28.9270    6.8160 C   0  0  0  0  0  0  0  0  0  0  0  0
   -1.7110   31.5510    8.0420 C   0  0  0  0  0  0  0  0  0  0  0  0
   -0.2530   26.0440    8.8960 C   0  0  0  0  0  0  0  0  0  0  0  0
   -0.9730   25.3300   10.0470 C   0  0  0  0  0  0  0  0  0  0  0  0
   -0.7500   23.8130    9.8460 C   0  0  0  0  0  0  0  0  0  0  0  0
   -1.3190   23.0000   11.0180 C   0  0  0  0  0  0  0  0  0  0  0  0
   -0.7520   23.4830   12.3620 C   0  0  0  0  0  0  0  0  0  0  0  0
   -1.0180   24.9820   12.5670 C   0  0  0  0  0  0  0  0  0  0  0  0
   -0.4350   25.8080   11.4100 C   0  0  0  0  0  0  0  0  0  0  0  0
    4.2300   25.4510    7.9860 C   0  0  0  0  0  0  0  0  0  0  0  0
    5.0870   24.9480    6.9970 C   0  0  0  0  0  0  0  0  0  0  0  0
    5.2740   25.6860    5.8220 C   0  0  0  0  0  0  0  0  0  0  0  0
    4.5690   26.8670    5.6060 C   0  0  0  0  0  0  0  0  0  0  0  0
    0.9960   27.9700    7.5200 N   0  0  0  0  0  0  0  0  0  0  0  0
   -0.1830   28.3080    8.1040 C   0  0  0  0  0  0  0  0  0  0  0  0
   -0.8570   27.4020    8.8280 O   0  0  0  0  0  0  0  0  0  0  0  0
   -0.6890   29.6270    7.9600 C   0  0  0  0  0  0  0  0  0  0  0  0
   -1.8220   30.2840    8.4500 N   0  0  0  0  0  0  0  0  0  0  0  0
   -0.5090   31.7770    7.2840 N   0  0  0  0  0  0  0  0  0  0  0  0
    0.1430   30.5510    7.2060 C   0  0  0  0  0  0  0  0  0  0  0  0
    1.3340   30.2340    6.5960 N   0  0  0  0  0  0  0  0  0  0  0  0
    2.9360   28.5190    6.2660 N   0  0  0  0  0  0  0  0  0  0  0  0
    3.6530   27.3290    6.5760 C   0  0  0  0  0  0  0  0  0  0  0  0
    3.5240   26.6340    7.7940 C   0  0  0  0  0  0  0  0  0  0  0  0
   -2.4040   32.3600    8.2530 H   0  0  0  0  0  0  0  0  0  0  0  0
    0.8370   26.1350    9.1000 H   0  0  0  0  0  0  0  0  0  0  0  0
   -0.4540   25.5790    7.9100 H   0  0  0  0  0  0  0  0  0  0  0  0
   -2.0680   25.5440   10.0080 H   0  0  0  0  0  0  0  0  0  0  0  0
   -1.2440   23.4880    8.9050 H   0  0  0  0  0  0  0  0  0  0  0  0
    0.3460   23.6060    9.7670 H   0  0  0  0  0  0  0  0  0  0  0  0
   -2.4240   23.1050   11.0360 H   0  0  0  0  0  0  0  0  0  0  0  0
   -1.0610   21.9240   10.8790 H   0  0  0  0  0  0  0  0  0  0  0  0
   -1.2200   22.9050   13.1900 H   0  0  0  0  0  0  0  0  0  0  0  0
    0.3480   23.3030   12.3740 H   0  0  0  0  0  0  0  0  0  0  0  0
   -2.1150   25.1590   12.6500 H   0  0  0  0  0  0  0  0  0  0  0  0
   -0.5370   25.3100   13.5180 H   0  0  0  0  0  0  0  0  0  0  0  0
    0.6780   25.7070   11.4340 H   0  0  0  0  0  0  0  0  0  0  0  0
   -0.6960   26.8800   11.5550 H   0  0  0  0  0  0  0  0  0  0  0  0
    4.0860   24.9240    8.9350 H   0  0  0  0  0  0  0  0  0  0  0  0
    5.9710   25.3520    5.0430 H   0  0  0  0  0  0  0  0  0  0  0  0
    4.7220   27.4260    4.6810 H   0  0  0  0  0  0  0  0  0  0  0  0
   -0.2340   32.6530    6.8150 H   0  0  0  0  0  0  0  0  0  0  0  0
    3.4330   29.1690    5.6110 H   0  0  0  0  0  0  0  0  0  0  0  0
    2.8660   26.9930    8.5850 H   0  0  0  0  0  0  0  0  0  0  0  0
    5.9090   23.4470    7.2060 S   0  0  0  0  0  0  0  0  0  0  0  0
    5.9480   22.7140    5.9310 O   0  0  0  0  0  0  0  0  0  0  0  0
    7.2300   23.7110    7.7900 O   0  0  0  0  0  0  0  0  0  0  0  0
    5.0220   22.4950    8.3020 N   0  0  0  0  0  0  0  0  0  0  0  0
    5.0770   22.7960    9.3200 H   0  0  0  0  0  0  0  0  0  0  0  0
    3.6410   22.0780    7.9640 C   0  0  0  0  0  0  0  0  0  0  0  0
    3.3780   21.1970    8.6130 H   0  0  0  0  0  0  0  0  0  0  0  0
    2.8910   22.8890    8.1600 H   0  0  0  0  0  0  0  0  0  0  0  0
    3.5670   21.7480    6.8980 H   0  0  0  0  0  0  0  0  0  0  0  0
  1 14  2  0  0  0  0
  1 21  1  0  0  0  0
  1 22  1  0  0  0  0
  2 18  2  0  0  0  0
  2 19  1  0  0  0  0
  2 25  1  0  0  0  0
  3  4  1  0  0  0  0
  3 16  1  0  0  0  0
  3 26  1  0  0  0  0
  3 27  1  0  0  0  0
  4  5  1  0  0  0  0
  4  9  1  0  0  0  0
  4 28  1  0  0  0  0
  5  6  1  0  0  0  0
  5 29  1  0  0  0  0
  5 30  1  0  0  0  0
  6  7  1  0  0  0  0
  6 31  1  0  0  0  0
  6 32  1  0  0  0  0
  7  8  1  0  0  0  0
  7 33  1  0  0  0  0
  7 34  1  0  0  0  0
  8  9  1  0  0  0  0
  8 35  1  0  0  0  0
  8 36  1  0  0  0  0
  9 37  1  0  0  0  0
  9 38  1  0  0  0  0
 10 11  2  0  0  0  0
 10 24  1  0  0  0  0
 10 39  1  0  0  0  0
 11 12  1  0  0  0  0
 11 45  1  0  0  0  0
 12 13  2  0  0  0  0
 12 40  1  0  0  0  0
 13 23  1  0  0  0  0
 13 41  1  0  0  0  0
 14 15  1  0  0  0  0
 15 16  1  0  0  0  0
 15 17  2  0  0  0  0
 17 18  1  0  0  0  0
 17 20  1  0  0  0  0
 19 20  1  0  0  0  0
 19 42  1  0  0  0  0
 20 21  2  0  0  0  0
 22 23  1  0  0  0  0
 22 43  1  0  0  0  0
 23 24  2  0  0  0  0
 24 44  1  0  0  0  0
 45 46  2  0  0  0  0
 45 47  2  0  0  0  0
 45 48  1  0  0  0  0
 48 49  1  0  0  0  0
 48 50  1  0  0  0  0
 50 51  1  0  0  0  0
 50 52  1  0  0  0  0
 50 53  1  0  0  0  0
M  END
$$$$
