45
 OpenBabel02232411163D
Structure written by MMmdl.
 48 51  0  0  0  0  0  0  0  0999 V2000
    3.6930  -49.9000    5.6530 O   0  0  0  0  0  0  0  0  0  0  0  0
    2.9490  -49.1400    6.3060 C   0  0  0  0  0  0  0  0  0  0  0  0
    3.3060  -48.1830    7.0060 O   0  5  0  0  0  0  0  0  0  0  0  0
    1.4520  -49.5030    6.2400 C   0  0  0  0  0  0  0  0  0  0  0  0
   -0.3040  -50.9780    6.2890 C   0  0  0  0  0  0  0  0  0  0  0  0
   -1.1440  -52.0980    6.4200 C   0  0  0  0  0  0  0  0  0  0  0  0
   -2.5100  -51.8900    6.2900 C   0  0  0  0  0  0  0  0  0  0  0  0
   -3.0360  -50.6040    6.0190 C   0  0  0  0  0  0  0  0  0  0  0  0
   -2.2110  -49.4960    5.8850 C   0  0  0  0  0  0  0  0  0  0  0  0
   -0.8240  -49.6600    6.0290 C   0  0  0  0  0  0  0  0  0  0  0  0
    0.3050  -48.7510    6.0150 C   0  0  0  0  0  0  0  0  0  0  0  0
    0.1300  -47.2780    5.8920 C   0  0  0  0  0  0  0  0  0  0  0  0
   -0.3390  -46.7280    7.2550 C   0  0  0  0  0  0  0  0  0  0  0  0
   -1.0040  -45.3590    7.2010 C   0  0  0  0  0  0  0  0  0  0  0  0
   -2.3440  -45.4030    6.6110 O   0  0  0  0  0  0  0  0  0  0  0  0
   -3.4320  -45.5760    7.4340 C   0  0  0  0  0  0  0  0  0  0  0  0
   -5.7810  -45.8630    8.9010 C   0  0  0  0  0  0  0  0  0  0  0  0
   -4.5970  -46.4290    9.3610 C   0  0  0  0  0  0  0  0  0  0  0  0
   -3.4110  -46.2940    8.6340 C   0  0  0  0  0  0  0  0  0  0  0  0
   -0.7470  -53.0910    6.6260 H   0  0  0  0  0  0  0  0  0  0  0  0
   -3.2030  -52.7240    6.4040 H   0  0  0  0  0  0  0  0  0  0  0  0
   -4.1160  -50.4900    5.9170 H   0  0  0  0  0  0  0  0  0  0  0  0
   -2.6430  -48.5150    5.6800 H   0  0  0  0  0  0  0  0  0  0  0  0
   -0.6620  -47.0630    5.1280 H   0  0  0  0  0  0  0  0  0  0  0  0
    1.0700  -46.7710    5.5800 H   0  0  0  0  0  0  0  0  0  0  0  0
   -1.0650  -47.4550    7.6930 H   0  0  0  0  0  0  0  0  0  0  0  0
    0.5420  -46.6470    7.9330 H   0  0  0  0  0  0  0  0  0  0  0  0
   -0.5070  -44.6840    6.4720 H   0  0  0  0  0  0  0  0  0  0  0  0
   -1.0810  -44.8940    8.2070 H   0  0  0  0  0  0  0  0  0  0  0  0
   -2.5060  -46.7540    9.0130 H   0  0  0  0  0  0  0  0  0  0  0  0
   -5.8060  -45.1690    7.6750 C   0  0  0  0  0  0  0  0  0  0  0  0
   -4.6280  -44.9830    6.9430 C   0  0  0  0  0  0  0  0  0  0  0  0
   -4.5870  -44.2210    5.6490 C   0  0  0  0  0  0  0  0  0  0  0  0
   -5.9230  -43.5800    5.2400 C   0  0  0  0  0  0  0  0  0  0  0  0
   -7.1180  -44.4470    5.6460 C   0  0  0  0  0  0  0  0  0  0  0  0
   -7.1250  -44.6510    7.1690 C   0  0  0  0  0  0  0  0  0  0  0  0
   -4.5960  -46.9950   10.2930 H   0  0  0  0  0  0  0  0  0  0  0  0
   -6.6970  -45.9660    9.4770 H   0  0  0  0  0  0  0  0  0  0  0  0
   -4.2590  -44.9180    4.8390 H   0  0  0  0  0  0  0  0  0  0  0  0
   -3.8330  -43.4050    5.7350 H   0  0  0  0  0  0  0  0  0  0  0  0
   -6.0250  -42.5830    5.7220 H   0  0  0  0  0  0  0  0  0  0  0  0
   -5.9140  -43.4340    4.1400 H   0  0  0  0  0  0  0  0  0  0  0  0
   -7.0480  -45.4370    5.1380 H   0  0  0  0  0  0  0  0  0  0  0  0
   -8.0710  -43.9660    5.3370 H   0  0  0  0  0  0  0  0  0  0  0  0
   -7.3410  -43.6790    7.6740 H   0  0  0  0  0  0  0  0  0  0  0  0
   -7.9400  -45.3710    7.4290 H   0  0  0  0  0  0  0  0  0  0  0  0
    1.0890  -50.8570    6.4060 N   0  0  0  0  0  0  0  0  0  0  0  0
    1.7060  -51.6460    6.5620 H   0  0  0  0  0  0  0  0  0  0  0  0
  1  2  2  0  0  0  0
  2  3  1  0  0  0  0
  2  4  1  0  0  0  0
  4 11  2  0  0  0  0
  4 47  1  0  0  0  0
  5  6  2  0  0  0  0
  5 10  1  0  0  0  0
  5 47  1  0  0  0  0
  6  7  1  0  0  0  0
  6 20  1  0  0  0  0
  7  8  2  0  0  0  0
  7 21  1  0  0  0  0
  8  9  1  0  0  0  0
  8 22  1  0  0  0  0
  9 10  2  0  0  0  0
  9 23  1  0  0  0  0
 10 11  1  0  0  0  0
 11 12  1  0  0  0  0
 12 24  1  0  0  0  0
 12 25  1  0  0  0  0
 12 13  1  0  0  0  0
 13 14  1  0  0  0  0
 13 26  1  0  0  0  0
 13 27  1  0  0  0  0
 14 15  1  0  0  0  0
 14 28  1  0  0  0  0
 14 29  1  0  0  0  0
 15 16  1  0  0  0  0
 16 19  2  0  0  0  0
 16 32  1  0  0  0  0
 17 18  2  0  0  0  0
 17 31  1  0  0  0  0
 17 38  1  0  0  0  0
 18 19  1  0  0  0  0
 18 37  1  0  0  0  0
 19 30  1  0  0  0  0
 31 32  2  0  0  0  0
 31 36  1  0  0  0  0
 32 33  1  0  0  0  0
 33 34  1  0  0  0  0
 33 39  1  0  0  0  0
 33 40  1  0  0  0  0
 34 35  1  0  0  0  0
 34 41  1  0  0  0  0
 34 42  1  0  0  0  0
 35 36  1  0  0  0  0
 35 43  1  0  0  0  0
 35 44  1  0  0  0  0
 36 45  1  0  0  0  0
 36 46  1  0  0  0  0
 47 48  1  0  0  0  0
M  CHG  1   3  -1
M  END
$$$$
