42
 OpenBabel02232411163D
Structure written by MMmdl.
 44 47  0  0  0  0  0  0  0  0999 V2000
    3.7630  -49.9000    5.5200 O   0  0  0  0  0  0  0  0  0  0  0  0
    3.0280  -49.1950    6.2370 C   0  0  0  0  0  0  0  0  0  0  0  0
    3.3860  -48.2880    7.0010 O   0  5  0  0  0  0  0  0  0  0  0  0
    1.5300  -49.5570    6.1710 C   0  0  0  0  0  0  0  0  0  0  0  0
   -0.2310  -51.0250    6.2190 C   0  0  0  0  0  0  0  0  0  0  0  0
   -1.0770  -52.1400    6.3520 C   0  0  0  0  0  0  0  0  0  0  0  0
   -2.4420  -51.9240    6.2320 C   0  0  0  0  0  0  0  0  0  0  0  0
   -2.9630  -50.6360    5.9670 C   0  0  0  0  0  0  0  0  0  0  0  0
   -2.1330  -49.5320    5.8280 C   0  0  0  0  0  0  0  0  0  0  0  0
   -0.7460  -49.7030    5.9650 C   0  0  0  0  0  0  0  0  0  0  0  0
    0.3870  -48.8000    5.9500 C   0  0  0  0  0  0  0  0  0  0  0  0
    0.2230  -47.3250    5.8280 C   0  0  0  0  0  0  0  0  0  0  0  0
   -0.2230  -46.7730    7.1980 C   0  0  0  0  0  0  0  0  0  0  0  0
   -0.9160  -45.4200    7.1560 C   0  0  0  0  0  0  0  0  0  0  0  0
   -2.2830  -45.4900    6.6210 O   0  0  0  0  0  0  0  0  0  0  0  0
   -3.3210  -45.7040    7.4890 C   0  0  0  0  0  0  0  0  0  0  0  0
   -5.6050  -46.0130    9.0970 C   0  0  0  0  0  0  0  0  0  0  0  0
   -4.4140  -46.5920    9.4550 C   0  0  0  0  0  0  0  0  0  0  0  0
   -3.2520  -46.4360    8.6560 C   0  0  0  0  0  0  0  0  0  0  0  0
   -0.6820  -53.1360    6.5520 H   0  0  0  0  0  0  0  0  0  0  0  0
   -3.1380  -52.7550    6.3510 H   0  0  0  0  0  0  0  0  0  0  0  0
   -4.0440  -50.5180    5.8730 H   0  0  0  0  0  0  0  0  0  0  0  0
   -2.5600  -48.5490    5.6250 H   0  0  0  0  0  0  0  0  0  0  0  0
   -0.5750  -47.1030    5.0730 H   0  0  0  0  0  0  0  0  0  0  0  0
    1.1650  -46.8270    5.5040 H   0  0  0  0  0  0  0  0  0  0  0  0
   -0.9230  -47.5150    7.6570 H   0  0  0  0  0  0  0  0  0  0  0  0
    0.6730  -46.6750    7.8560 H   0  0  0  0  0  0  0  0  0  0  0  0
   -0.4690  -44.7370    6.4010 H   0  0  0  0  0  0  0  0  0  0  0  0
   -0.9720  -44.9480    8.1610 H   0  0  0  0  0  0  0  0  0  0  0  0
   -2.3430  -46.9200    8.9890 H   0  0  0  0  0  0  0  0  0  0  0  0
   -5.7090  -45.2840    7.8710 C   0  0  0  0  0  0  0  0  0  0  0  0
   -4.5630  -45.1080    7.0510 C   0  0  0  0  0  0  0  0  0  0  0  0
   -4.6820  -44.4030    5.8170 C   0  0  0  0  0  0  0  0  0  0  0  0
   -5.9010  -43.9130    5.4100 C   0  0  0  0  0  0  0  0  0  0  0  0
   -7.0550  -44.1090    6.2190 C   0  0  0  0  0  0  0  0  0  0  0  0
   -6.9630  -44.7640    7.4220 C   0  0  0  0  0  0  0  0  0  0  0  0
   -3.7960  -44.2810    5.1890 H   0  0  0  0  0  0  0  0  0  0  0  0
   -6.0010  -43.3760    4.4710 H   0  0  0  0  0  0  0  0  0  0  0  0
   -8.0200  -43.7440    5.8690 H   0  0  0  0  0  0  0  0  0  0  0  0
   -7.8460  -44.9230    8.0400 H   0  0  0  0  0  0  0  0  0  0  0  0
   -4.3420  -47.1940   10.3630 H   0  0  0  0  0  0  0  0  0  0  0  0
   -6.4900  -46.1150    9.7230 H   0  0  0  0  0  0  0  0  0  0  0  0
    1.1630  -50.9100    6.3320 N   0  0  0  0  0  0  0  0  0  0  0  0
    1.7780  -51.7030    6.4840 H   0  0  0  0  0  0  0  0  0  0  0  0
  1  2  2  0  0  0  0
  2  3  1  0  0  0  0
  2  4  1  0  0  0  0
  4 11  2  0  0  0  0
  4 43  1  0  0  0  0
  5  6  2  0  0  0  0
  5 10  1  0  0  0  0
  5 43  1  0  0  0  0
  6  7  1  0  0  0  0
  6 20  1  0  0  0  0
  7  8  2  0  0  0  0
  7 21  1  0  0  0  0
  8  9  1  0  0  0  0
  8 22  1  0  0  0  0
  9 10  2  0  0  0  0
  9 23  1  0  0  0  0
 10 11  1  0  0  0  0
 11 12  1  0  0  0  0
 12 24  1  0  0  0  0
 12 25  1  0  0  0  0
 12 13  1  0  0  0  0
 13 14  1  0  0  0  0
 13 26  1  0  0  0  0
 13 27  1  0  0  0  0
 14 15  1  0  0  0  0
 14 28  1  0  0  0  0
 14 29  1  0  0  0  0
 15 16  1  0  0  0  0
 16 19  2  0  0  0  0
 16 32  1  0  0  0  0
 17 18  2  0  0  0  0
 17 31  1  0  0  0  0
 17 42  1  0  0  0  0
 18 19  1  0  0  0  0
 18 41  1  0  0  0  0
 19 30  1  0  0  0  0
 31 32  2  0  0  0  0
 31 36  1  0  0  0  0
 32 33  1  0  0  0  0
 33 34  2  0  0  0  0
 33 37  1  0  0  0  0
 34 35  1  0  0  0  0
 34 38  1  0  0  0  0
 35 36  2  0  0  0  0
 35 39  1  0  0  0  0
 36 40  1  0  0  0  0
 43 44  1  0  0  0  0
M  CHG  1   3  -1
M  END
$$$$
