p38a_3flw
 OpenBabel02232411163D
Structure written by MMmdl.
 49 51  0  0  0  0  0  0  0  0999 V2000
   36.4120   36.1170   15.6940 C   0  0  0  0  0  0  0  0  0  0  0  0
   37.6960   36.6550   15.8510 C   0  0  0  0  0  0  0  0  0  0  0  0
   32.5060   39.6920   27.1410 C   0  0  0  0  0  0  0  0  0  0  0  0
   33.8390   40.0750   27.7930 C   0  0  0  0  0  0  0  0  0  0  0  0
   31.2880   38.1290   25.5670 C   0  0  0  0  0  0  0  0  0  0  0  0
   33.3890   34.8410   23.3380 C   0  0  0  0  0  0  0  0  0  0  0  0
   34.6160   35.0320   16.7750 F   0  0  0  0  0  0  0  0  0  0  0  0
   35.8140   35.5970   16.8380 C   0  0  0  0  0  0  0  0  0  0  0  0
   38.2710   37.2140   14.7890 F   0  0  0  0  0  0  0  0  0  0  0  0
   38.3830   36.6660   17.0680 C   0  0  0  0  0  0  0  0  0  0  0  0
   37.7450   36.1750   18.2120 C   0  0  0  0  0  0  0  0  0  0  0  0
   36.4600   35.6390   18.0900 C   0  0  0  0  0  0  0  0  0  0  0  0
   35.8030   34.9880   19.1420 O   0  0  0  0  0  0  0  0  0  0  0  0
   35.2550   35.8130   20.1210 C   0  0  0  0  0  0  0  0  0  0  0  0
   35.3200   37.1610   20.2120 C   0  0  0  0  0  0  0  0  0  0  0  0
   34.7300   37.8060   21.3550 C   0  0  0  0  0  0  0  0  0  0  0  0
   34.7150   39.2160   21.5360 C   0  0  0  0  0  0  0  0  0  0  0  0
   34.2190   39.8120   22.6300 N   0  0  0  0  0  0  0  0  0  0  0  0
   34.5430   34.9410   21.0950 C   0  0  0  0  0  0  0  0  0  0  0  0
   34.3690   33.7480   20.9670 O   0  0  0  0  0  0  0  0  0  0  0  0
   34.0400   35.6270   22.2520 N   0  0  0  0  0  0  0  0  0  0  0  0
   34.1410   37.0220   22.3900 C   0  0  0  0  0  0  0  0  0  0  0  0
   33.6480   37.5930   23.5340 N   0  0  0  0  0  0  0  0  0  0  0  0
   33.6940   38.9720   23.6350 C   0  0  0  0  0  0  0  0  0  0  0  0
   33.1880   39.5630   24.7660 N   0  0  0  0  0  0  0  0  0  0  0  0
   32.6540   38.7660   25.9220 C   0  0  0  0  0  0  0  0  0  0  0  0
   31.0420   36.8470   26.3750 C   0  0  0  0  0  0  0  0  0  0  0  0
   30.7020   37.1620   27.7420 O   0  0  0  0  0  0  0  0  0  0  0  0
   33.6050   40.6750   29.0800 O   0  0  0  0  0  0  0  0  0  0  0  0
   35.9000   36.1260   14.7300 H   0  0  0  0  0  0  0  0  0  0  0  0
   31.8700   39.1510   27.8920 H   0  0  0  0  0  0  0  0  0  0  0  0
   31.9740   40.6220   26.8390 H   0  0  0  0  0  0  0  0  0  0  0  0
   34.4580   39.1800   28.0330 H   0  0  0  0  0  0  0  0  0  0  0  0
   34.3950   40.8030   27.1590 H   0  0  0  0  0  0  0  0  0  0  0  0
   30.4680   38.8600   25.7540 H   0  0  0  0  0  0  0  0  0  0  0  0
   31.2680   37.8570   24.4830 H   0  0  0  0  0  0  0  0  0  0  0  0
   32.4060   35.3110   23.6170 H   0  0  0  0  0  0  0  0  0  0  0  0
   33.2060   33.7890   23.0020 H   0  0  0  0  0  0  0  0  0  0  0  0
   34.0470   34.8340   24.2490 H   0  0  0  0  0  0  0  0  0  0  0  0
   39.3920   37.0790   17.1430 H   0  0  0  0  0  0  0  0  0  0  0  0
   38.2450   36.2370   19.1810 H   0  0  0  0  0  0  0  0  0  0  0  0
   35.8120   37.7880   19.4660 H   0  0  0  0  0  0  0  0  0  0  0  0
   35.1200   39.8720   20.7480 H   0  0  0  0  0  0  0  0  0  0  0  0
   33.2370   40.5910   24.8820 H   0  0  0  0  0  0  0  0  0  0  0  0
   33.4000   37.9530   26.1450 H   0  0  0  0  0  0  0  0  0  0  0  0
   30.2190   36.2540   25.9190 H   0  0  0  0  0  0  0  0  0  0  0  0
   31.9730   36.2370   26.4650 H   0  0  0  0  0  0  0  0  0  0  0  0
   29.7010   37.0390   27.8500 H   0  0  0  0  0  0  0  0  0  0  0  0
   33.0430   41.5030   28.9380 H   0  0  0  0  0  0  0  0  0  0  0  0
  1  2  2  0  0  0  0
  1  8  1  0  0  0  0
  1 30  1  0  0  0  0
  2  9  1  0  0  0  0
  2 10  1  0  0  0  0
  3  4  1  0  0  0  0
  3 26  1  0  0  0  0
  3 31  1  0  0  0  0
  3 32  1  0  0  0  0
  4 29  1  0  0  0  0
  4 33  1  0  0  0  0
  4 34  1  0  0  0  0
  5 26  1  0  0  0  0
  5 27  1  0  0  0  0
  5 35  1  0  0  0  0
  5 36  1  0  0  0  0
  6 21  1  0  0  0  0
  6 37  1  0  0  0  0
  6 38  1  0  0  0  0
  6 39  1  0  0  0  0
  7  8  1  0  0  0  0
  8 12  2  0  0  0  0
 10 11  2  0  0  0  0
 10 40  1  0  0  0  0
 11 12  1  0  0  0  0
 11 41  1  0  0  0  0
 12 13  1  0  0  0  0
 13 14  1  0  0  0  0
 14 15  2  0  0  0  0
 14 19  1  0  0  0  0
 15 16  1  0  0  0  0
 15 42  1  0  0  0  0
 16 17  2  0  0  0  0
 16 22  1  0  0  0  0
 17 18  1  0  0  0  0
 17 43  1  0  0  0  0
 18 24  2  0  0  0  0
 19 20  2  0  0  0  0
 19 21  1  0  0  0  0
 21 22  1  0  0  0  0
 22 23  2  0  0  0  0
 23 24  1  0  0  0  0
 24 25  1  0  0  0  0
 25 26  1  0  0  0  0
 25 44  1  0  0  0  0
 26 45  1  0  0  0  0
 27 28  1  0  0  0  0
 27 46  1  0  0  0  0
 27 47  1  0  0  0  0
 28 48  1  0  0  0  0
 29 49  1  0  0  0  0
M  END
$$$$
