68
 OpenBabel02232411163D
Structure written by MMmdl.
 43 46  0  0  0  0  0  0  0  0999 V2000
    3.9410  -49.6090    6.3650 O   0  0  0  0  0  0  0  0  0  0  0  0
    3.1120  -48.7420    6.6710 C   0  0  0  0  0  0  0  0  0  0  0  0
    3.2920  -47.6200    7.1570 O   0  5  0  0  0  0  0  0  0  0  0  0
    1.6340  -49.1590    6.4430 C   0  0  0  0  0  0  0  0  0  0  0  0
    0.0740  -50.7510    6.6490 C   0  0  0  0  0  0  0  0  0  0  0  0
   -0.5930  -51.9320    6.9570 C   0  0  0  0  0  0  0  0  0  0  0  0
   -1.9700  -51.9440    6.7260 C   0  0  0  0  0  0  0  0  0  0  0  0
   -2.5980  -50.8040    6.1980 C   0  0  0  0  0  0  0  0  0  0  0  0
   -1.9400  -49.6190    5.8770 C   0  0  0  0  0  0  0  0  0  0  0  0
   -0.5650  -49.5820    6.1190 C   0  0  0  0  0  0  0  0  0  0  0  0
    0.4740  -48.5730    6.0030 C   0  0  0  0  0  0  0  0  0  0  0  0
    0.2490  -47.1870    5.5170 C   0  0  0  0  0  0  0  0  0  0  0  0
    0.2200  -46.1530    6.6560 C   0  0  0  0  0  0  0  0  0  0  0  0
   -0.9430  -46.3290    7.6250 C   0  0  0  0  0  0  0  0  0  0  0  0
   -2.1200  -45.7670    6.9300 O   0  0  0  0  0  0  0  0  0  0  0  0
   -3.3130  -45.7850    7.5920 C   0  0  0  0  0  0  0  0  0  0  0  0
   -5.8630  -45.5840    8.7580 C   0  0  0  0  0  0  0  0  0  0  0  0
   -4.8710  -46.3190    9.3600 C   0  0  0  0  0  0  0  0  0  0  0  0
   -3.5760  -46.4260    8.7870 C   0  0  0  0  0  0  0  0  0  0  0  0
   -0.0950  -52.8130    7.3660 H   0  0  0  0  0  0  0  0  0  0  0  0
   -2.5570  -52.8340    6.9630 H   0  0  0  0  0  0  0  0  0  0  0  0
   -4.3130  -50.8770    5.9410 Cl  0  0  0  0  0  0  0  0  0  0  0  0
   -2.4830  -48.7670    5.4670 H   0  0  0  0  0  0  0  0  0  0  0  0
   -0.7290  -47.1430    4.9690 H   0  0  0  0  0  0  0  0  0  0  0  0
    1.0640  -46.8960    4.8090 H   0  0  0  0  0  0  0  0  0  0  0  0
    0.1600  -45.1290    6.2190 H   0  0  0  0  0  0  0  0  0  0  0  0
    1.1700  -46.2440    7.2450 H   0  0  0  0  0  0  0  0  0  0  0  0
   -0.8120  -45.7100    8.5390 H   0  0  0  0  0  0  0  0  0  0  0  0
   -1.1690  -47.3950    7.8330 H   0  0  0  0  0  0  0  0  0  0  0  0
   -2.8410  -47.0210    9.3180 H   0  0  0  0  0  0  0  0  0  0  0  0
   -5.6230  -44.9450    7.5020 C   0  0  0  0  0  0  0  0  0  0  0  0
   -4.3410  -45.0410    6.8990 C   0  0  0  0  0  0  0  0  0  0  0  0
   -4.1150  -44.4440    5.6260 C   0  0  0  0  0  0  0  0  0  0  0  0
   -5.1210  -43.7630    4.9840 C   0  0  0  0  0  0  0  0  0  0  0  0
   -6.4080  -43.6730    5.5800 C   0  0  0  0  0  0  0  0  0  0  0  0
   -6.6560  -44.2450    6.8040 C   0  0  0  0  0  0  0  0  0  0  0  0
   -3.1370  -44.5610    5.1570 H   0  0  0  0  0  0  0  0  0  0  0  0
   -4.9490  -43.2950    4.0180 H   0  0  0  0  0  0  0  0  0  0  0  0
   -7.1950  -43.1480    5.0430 H   0  0  0  0  0  0  0  0  0  0  0  0
   -7.6460  -44.1870    7.2540 H   0  0  0  0  0  0  0  0  0  0  0  0
   -5.0710  -46.8420   10.2980 H   0  0  0  0  0  0  0  0  0  0  0  0
   -6.8480  -45.4950    9.2150 H   0  0  0  0  0  0  0  0  0  0  0  0
    1.4330  -50.5000    6.8300 O   0  0  0  0  0  0  0  0  0  0  0  0
  1  2  2  0  0  0  0
  2  3  1  0  0  0  0
  2  4  1  0  0  0  0
  4 11  2  0  0  0  0
  4 43  1  0  0  0  0
  5  6  2  0  0  0  0
  5 10  1  0  0  0  0
  5 43  1  0  0  0  0
  6  7  1  0  0  0  0
  6 20  1  0  0  0  0
  7  8  2  0  0  0  0
  7 21  1  0  0  0  0
  8  9  1  0  0  0  0
  8 22  1  0  0  0  0
  9 10  2  0  0  0  0
  9 23  1  0  0  0  0
 10 11  1  0  0  0  0
 11 12  1  0  0  0  0
 12 24  1  0  0  0  0
 12 25  1  0  0  0  0
 12 13  1  0  0  0  0
 13 14  1  0  0  0  0
 13 26  1  0  0  0  0
 13 27  1  0  0  0  0
 14 15  1  0  0  0  0
 14 28  1  0  0  0  0
 14 29  1  0  0  0  0
 15 16  1  0  0  0  0
 16 19  2  0  0  0  0
 16 32  1  0  0  0  0
 17 18  2  0  0  0  0
 17 31  1  0  0  0  0
 17 42  1  0  0  0  0
 18 19  1  0  0  0  0
 18 41  1  0  0  0  0
 19 30  1  0  0  0  0
 31 32  2  0  0  0  0
 31 36  1  0  0  0  0
 32 33  1  0  0  0  0
 33 34  2  0  0  0  0
 33 37  1  0  0  0  0
 34 35  1  0  0  0  0
 34 38  1  0  0  0  0
 35 36  2  0  0  0  0
 35 39  1  0  0  0  0
 36 40  1  0  0  0  0
M  CHG  1   3  -1
M  END
$$$$
