p38a_3fln
 OpenBabel02232411163D
Structure written by MMmdl.
 46 49  0  0  0  0  0  0  0  0999 V2000
   32.0680   39.5870   27.0030 C   0  0  0  0  0  0  0  0  0  0  0  0
   33.0530   40.2100   28.0010 C   0  0  0  0  0  0  0  0  0  0  0  0
   34.6380   38.4200   27.7190 C   0  0  0  0  0  0  0  0  0  0  0  0
   33.7170   37.6720   26.7550 C   0  0  0  0  0  0  0  0  0  0  0  0
   36.4070   36.1340   15.6780 C   0  0  0  0  0  0  0  0  0  0  0  0
   33.8760   39.2210   28.6530 O   0  0  0  0  0  0  0  0  0  0  0  0
   34.4910   34.8910   21.0470 C   0  0  0  0  0  0  0  0  0  0  0  0
   35.7960   35.6060   16.8100 C   0  0  0  0  0  0  0  0  0  0  0  0
   33.8270   38.8480   23.7530 C   0  0  0  0  0  0  0  0  0  0  0  0
   32.7440   38.6130   26.0160 C   0  0  0  0  0  0  0  0  0  0  0  0
   34.7740   37.7380   21.4100 C   0  0  0  0  0  0  0  0  0  0  0  0
   35.3450   37.1150   20.2460 C   0  0  0  0  0  0  0  0  0  0  0  0
   37.6940   36.6600   15.8510 C   0  0  0  0  0  0  0  0  0  0  0  0
   38.3720   36.6520   17.0730 C   0  0  0  0  0  0  0  0  0  0  0  0
   37.7210   36.1520   18.2060 C   0  0  0  0  0  0  0  0  0  0  0  0
   34.1290   36.9420   22.4030 C   0  0  0  0  0  0  0  0  0  0  0  0
   34.8410   39.1360   21.6570 C   0  0  0  0  0  0  0  0  0  0  0  0
   35.2350   35.7740   20.1070 C   0  0  0  0  0  0  0  0  0  0  0  0
   36.4330   35.6270   18.0680 C   0  0  0  0  0  0  0  0  0  0  0  0
   33.2670   34.7620   23.2520 C   0  0  0  0  0  0  0  0  0  0  0  0
   34.5940   35.0520   16.7320 F   0  0  0  0  0  0  0  0  0  0  0  0
   38.2820   37.2240   14.7990 F   0  0  0  0  0  0  0  0  0  0  0  0
   35.7600   34.9650   19.1020 O   0  0  0  0  0  0  0  0  0  0  0  0
   34.3950   39.7050   22.7860 N   0  0  0  0  0  0  0  0  0  0  0  0
   34.3070   33.7030   20.8910 O   0  0  0  0  0  0  0  0  0  0  0  0
   33.9730   35.5580   22.2100 N   0  0  0  0  0  0  0  0  0  0  0  0
   33.6520   37.4880   23.5660 N   0  0  0  0  0  0  0  0  0  0  0  0
   33.4240   39.4070   24.9400 N   0  0  0  0  0  0  0  0  0  0  0  0
   31.2800   39.0160   27.5550 H   0  0  0  0  0  0  0  0  0  0  0  0
   31.5660   40.4070   26.4330 H   0  0  0  0  0  0  0  0  0  0  0  0
   33.7160   40.9450   27.4930 H   0  0  0  0  0  0  0  0  0  0  0  0
   32.5130   40.6760   28.8580 H   0  0  0  0  0  0  0  0  0  0  0  0
   35.1710   37.7150   28.3990 H   0  0  0  0  0  0  0  0  0  0  0  0
   35.3450   39.0830   27.1710 H   0  0  0  0  0  0  0  0  0  0  0  0
   34.3350   37.0960   26.0220 H   0  0  0  0  0  0  0  0  0  0  0  0
   33.0990   36.9270   27.3190 H   0  0  0  0  0  0  0  0  0  0  0  0
   35.9030   36.1580   14.7100 H   0  0  0  0  0  0  0  0  0  0  0  0
   31.9450   37.9860   25.5220 H   0  0  0  0  0  0  0  0  0  0  0  0
   35.8600   37.7510   19.5230 H   0  0  0  0  0  0  0  0  0  0  0  0
   39.3830   37.0570   17.1590 H   0  0  0  0  0  0  0  0  0  0  0  0
   38.2150   36.1990   19.1790 H   0  0  0  0  0  0  0  0  0  0  0  0
   35.2760   39.8060   20.8960 H   0  0  0  0  0  0  0  0  0  0  0  0
   33.8230   34.8280   24.2260 H   0  0  0  0  0  0  0  0  0  0  0  0
   32.2310   35.1690   23.4090 H   0  0  0  0  0  0  0  0  0  0  0  0
   33.1960   33.6880   22.9400 H   0  0  0  0  0  0  0  0  0  0  0  0
   33.5610   40.4220   25.1040 H   0  0  0  0  0  0  0  0  0  0  0  0
  1  2  1  0  0  0  0
  1 10  1  0  0  0  0
  1 29  1  0  0  0  0
  1 30  1  0  0  0  0
  2  6  1  0  0  0  0
  2 31  1  0  0  0  0
  2 32  1  0  0  0  0
  3  4  1  0  0  0  0
  3  6  1  0  0  0  0
  3 33  1  0  0  0  0
  3 34  1  0  0  0  0
  4 10  1  0  0  0  0
  4 35  1  0  0  0  0
  4 36  1  0  0  0  0
  5  8  2  0  0  0  0
  5 13  1  0  0  0  0
  5 37  1  0  0  0  0
  7 18  1  0  0  0  0
  7 25  2  0  0  0  0
  7 26  1  0  0  0  0
  8 19  1  0  0  0  0
  8 21  1  0  0  0  0
  9 24  2  0  0  0  0
  9 27  1  0  0  0  0
  9 28  1  0  0  0  0
 10 28  1  0  0  0  0
 10 38  1  0  0  0  0
 11 12  1  0  0  0  0
 11 16  1  0  0  0  0
 11 17  2  0  0  0  0
 12 18  2  0  0  0  0
 12 39  1  0  0  0  0
 13 14  2  0  0  0  0
 13 22  1  0  0  0  0
 14 15  1  0  0  0  0
 14 40  1  0  0  0  0
 15 19  2  0  0  0  0
 15 41  1  0  0  0  0
 16 26  1  0  0  0  0
 16 27  2  0  0  0  0
 17 24  1  0  0  0  0
 17 42  1  0  0  0  0
 18 23  1  0  0  0  0
 19 23  1  0  0  0  0
 20 26  1  0  0  0  0
 20 43  1  0  0  0  0
 20 44  1  0  0  0  0
 20 45  1  0  0  0  0
 28 46  1  0  0  0  0
M  END
$$$$
