33
 OpenBabel02232411163D
Structure written by MMmdl.
 38 40  0  0  0  0  0  0  0  0999 V2000
    3.8500  -50.1450    5.5810 O   0  0  0  0  0  0  0  0  0  0  0  0
    3.1290  -49.4020    6.2750 C   0  0  0  0  0  0  0  0  0  0  0  0
    3.5080  -48.4880    7.0190 O   0  5  0  0  0  0  0  0  0  0  0  0
    1.6210  -49.7120    6.2050 C   0  0  0  0  0  0  0  0  0  0  0  0
   -0.2080  -51.0930    6.2750 C   0  0  0  0  0  0  0  0  0  0  0  0
   -1.1050  -52.1650    6.4230 C   0  0  0  0  0  0  0  0  0  0  0  0
   -2.4580  -51.8880    6.2940 C   0  0  0  0  0  0  0  0  0  0  0  0
   -2.9180  -50.5800    6.0100 C   0  0  0  0  0  0  0  0  0  0  0  0
   -2.0380  -49.5170    5.8610 C   0  0  0  0  0  0  0  0  0  0  0  0
   -0.6600  -49.7530    6.0000 C   0  0  0  0  0  0  0  0  0  0  0  0
    0.5140  -48.9050    5.9700 C   0  0  0  0  0  0  0  0  0  0  0  0
    0.4280  -47.4280    5.8150 C   0  0  0  0  0  0  0  0  0  0  0  0
   -0.0140  -46.8180    7.1630 C   0  0  0  0  0  0  0  0  0  0  0  0
   -0.6770  -45.4540    7.0360 C   0  0  0  0  0  0  0  0  0  0  0  0
   -1.9370  -45.5520    6.2850 O   0  0  0  0  0  0  0  0  0  0  0  0
   -3.1060  -45.5230    6.9970 C   0  0  0  0  0  0  0  0  0  0  0  0
   -3.2950  -46.1760    8.2280 C   0  0  0  0  0  0  0  0  0  0  0  0
   -4.5310  -46.0780    8.8650 C   0  0  0  0  0  0  0  0  0  0  0  0
   -5.5400  -45.3200    8.2680 C   0  0  0  0  0  0  0  0  0  0  0  0
   -5.3780  -44.6990    7.0260 C   0  0  0  0  0  0  0  0  0  0  0  0
   -4.1500  -44.8020    6.3780 C   0  0  0  0  0  0  0  0  0  0  0  0
   -0.7580  -53.1750    6.6410 H   0  0  0  0  0  0  0  0  0  0  0  0
   -3.1930  -52.6840    6.4190 H   0  0  0  0  0  0  0  0  0  0  0  0
   -3.9920  -50.4120    5.9120 H   0  0  0  0  0  0  0  0  0  0  0  0
   -2.4170  -48.5160    5.6500 H   0  0  0  0  0  0  0  0  0  0  0  0
   -0.3480  -47.1800    5.0440 H   0  0  0  0  0  0  0  0  0  0  0  0
    1.3980  -46.9840    5.4960 H   0  0  0  0  0  0  0  0  0  0  0  0
    0.8740  -46.7110    7.8280 H   0  0  0  0  0  0  0  0  0  0  0  0
   -0.7430  -47.5170    7.6430 H   0  0  0  0  0  0  0  0  0  0  0  0
   -0.1140  -44.7640    6.3720 H   0  0  0  0  0  0  0  0  0  0  0  0
   -0.8860  -44.9930    8.0260 H   0  0  0  0  0  0  0  0  0  0  0  0
   -2.5080  -46.7720    8.6870 H   0  0  0  0  0  0  0  0  0  0  0  0
   -3.9970  -44.3380    5.4030 H   0  0  0  0  0  0  0  0  0  0  0  0
    1.1910  -51.0430    6.3870 N   0  0  0  0  0  0  0  0  0  0  0  0
    1.7650  -51.8600    6.5620 H   0  0  0  0  0  0  0  0  0  0  0  0
   -6.2020  -44.1450    6.5690 H   0  0  0  0  0  0  0  0  0  0  0  0
   -7.0430  -45.1420    9.1040 Cl  0  0  0  0  0  0  0  0  0  0  0  0
   -4.7080  -46.5870    9.8160 H   0  0  0  0  0  0  0  0  0  0  0  0
  1  2  2  0  0  0  0
  2  3  1  0  0  0  0
  2  4  1  0  0  0  0
  4 11  2  0  0  0  0
  4 34  1  0  0  0  0
  5  6  2  0  0  0  0
  5 10  1  0  0  0  0
  5 34  1  0  0  0  0
  6  7  1  0  0  0  0
  6 22  1  0  0  0  0
  7  8  2  0  0  0  0
  7 23  1  0  0  0  0
  8  9  1  0  0  0  0
  8 24  1  0  0  0  0
  9 10  2  0  0  0  0
  9 25  1  0  0  0  0
 10 11  1  0  0  0  0
 11 12  1  0  0  0  0
 12 26  1  0  0  0  0
 12 27  1  0  0  0  0
 12 13  1  0  0  0  0
 13 14  1  0  0  0  0
 13 28  1  0  0  0  0
 13 29  1  0  0  0  0
 14 15  1  0  0  0  0
 14 30  1  0  0  0  0
 14 31  1  0  0  0  0
 15 16  1  0  0  0  0
 16 17  2  0  0  0  0
 16 21  1  0  0  0  0
 17 18  1  0  0  0  0
 17 32  1  0  0  0  0
 18 19  2  0  0  0  0
 18 38  1  0  0  0  0
 19 20  1  0  0  0  0
 19 37  1  0  0  0  0
 20 21  2  0  0  0  0
 20 36  1  0  0  0  0
 21 33  1  0  0  0  0
 34 35  1  0  0  0  0
M  CHG  1   3  -1
M  END
$$$$
