p38a_2aa
 OpenBabel02232411163D
Structure written by MMmdl.
 43 45  0  0  0  0  0  0  0  0999 V2000
   38.3050   36.5650   17.1170 C   0  0  0  0  0  0  0  0  0  0  0  0
   34.5820   35.0360   21.1610 C   0  0  0  0  0  0  0  0  0  0  0  0
   37.5220   36.0900   18.1640 C   0  0  0  0  0  0  0  0  0  0  0  0
   34.1110   39.0730   23.7850 C   0  0  0  0  0  0  0  0  0  0  0  0
   33.2760   39.0700   26.1970 C   0  0  0  0  0  0  0  0  0  0  0  0
   34.7350   37.9090   21.3660 C   0  0  0  0  0  0  0  0  0  0  0  0
   35.1120   37.2680   20.1360 C   0  0  0  0  0  0  0  0  0  0  0  0
   37.6630   36.7270   15.8810 C   0  0  0  0  0  0  0  0  0  0  0  0
   36.3190   36.4140   15.6650 C   0  0  0  0  0  0  0  0  0  0  0  0
   35.5560   35.9240   16.7300 C   0  0  0  0  0  0  0  0  0  0  0  0
   34.3630   37.1200   22.4940 C   0  0  0  0  0  0  0  0  0  0  0  0
   34.7200   39.3190   21.5330 C   0  0  0  0  0  0  0  0  0  0  0  0
   35.0710   35.9170   20.0670 C   0  0  0  0  0  0  0  0  0  0  0  0
   36.1640   35.7530   17.9760 C   0  0  0  0  0  0  0  0  0  0  0  0
   33.8750   34.9340   23.5850 C   0  0  0  0  0  0  0  0  0  0  0  0
   38.0480   35.9540   19.3750 F   0  0  0  0  0  0  0  0  0  0  0  0
   35.4400   35.1130   18.9910 O   0  0  0  0  0  0  0  0  0  0  0  0
   34.4180   39.9130   22.6990 N   0  0  0  0  0  0  0  0  0  0  0  0
   34.4270   33.8370   21.0840 O   0  0  0  0  0  0  0  0  0  0  0  0
   34.2850   35.7240   22.3910 N   0  0  0  0  0  0  0  0  0  0  0  0
   34.0500   37.7000   23.7010 N   0  0  0  0  0  0  0  0  0  0  0  0
   33.8850   39.7020   24.9950 N   0  0  0  0  0  0  0  0  0  0  0  0
   39.3550   36.8360   17.2610 H   0  0  0  0  0  0  0  0  0  0  0  0
   32.0240   38.1780   25.9420 C   0  0  0  0  0  0  0  0  0  0  0  0
   35.4300   37.8980   19.3030 H   0  0  0  0  0  0  0  0  0  0  0  0
   35.8520   36.5630   14.6890 H   0  0  0  0  0  0  0  0  0  0  0  0
   34.4960   35.6940   16.5820 H   0  0  0  0  0  0  0  0  0  0  0  0
   34.9490   39.9770   20.6780 H   0  0  0  0  0  0  0  0  0  0  0  0
   34.4950   35.2290   24.4760 H   0  0  0  0  0  0  0  0  0  0  0  0
   32.7970   35.1350   23.8240 H   0  0  0  0  0  0  0  0  0  0  0  0
   34.0130   33.8380   23.3920 H   0  0  0  0  0  0  0  0  0  0  0  0
   33.7930   40.7410   24.9900 H   0  0  0  0  0  0  0  0  0  0  0  0
   38.3600   37.2440   14.8730 F   0  0  0  0  0  0  0  0  0  0  0  0
   34.3420   38.2420   26.9650 C   0  0  0  0  0  0  0  0  0  0  0  0
   35.3940   39.0850   27.4560 O   0  0  0  0  0  0  0  0  0  0  0  0
   35.7750   39.5890   26.6980 H   0  0  0  0  0  0  0  0  0  0  0  0
   33.8960   37.8140   27.8960 H   0  0  0  0  0  0  0  0  0  0  0  0
   34.7810   37.4460   26.3220 H   0  0  0  0  0  0  0  0  0  0  0  0
   31.2560   38.6080   24.8130 O   0  0  0  0  0  0  0  0  0  0  0  0
   32.3210   37.1100   25.7970 H   0  0  0  0  0  0  0  0  0  0  0  0
   31.3130   38.2810   26.7980 H   0  0  0  0  0  0  0  0  0  0  0  0
   31.7840   38.4170   24.0110 H   0  0  0  0  0  0  0  0  0  0  0  0
   32.9620   39.9370   26.8520 H   0  0  0  0  0  0  0  0  0  0  0  0
  1  3  2  0  0  0  0
  1  8  1  0  0  0  0
  1 23  1  0  0  0  0
  2 13  1  0  0  0  0
  2 19  2  0  0  0  0
  2 20  1  0  0  0  0
  3 14  1  0  0  0  0
  3 16  1  0  0  0  0
  4 18  2  0  0  0  0
  4 21  1  0  0  0  0
  4 22  1  0  0  0  0
  5 22  1  0  0  0  0
  5 24  1  0  0  0  0
  5 34  1  0  0  0  0
  5 43  1  0  0  0  0
  6  7  1  0  0  0  0
  6 11  1  0  0  0  0
  6 12  2  0  0  0  0
  7 13  2  0  0  0  0
  7 25  1  0  0  0  0
  8  9  2  0  0  0  0
  8 33  1  0  0  0  0
  9 10  1  0  0  0  0
  9 26  1  0  0  0  0
 10 14  2  0  0  0  0
 10 27  1  0  0  0  0
 11 20  1  0  0  0  0
 11 21  2  0  0  0  0
 12 18  1  0  0  0  0
 12 28  1  0  0  0  0
 13 17  1  0  0  0  0
 14 17  1  0  0  0  0
 15 20  1  0  0  0  0
 15 29  1  0  0  0  0
 15 30  1  0  0  0  0
 15 31  1  0  0  0  0
 22 32  1  0  0  0  0
 24 39  1  0  0  0  0
 24 40  1  0  0  0  0
 24 41  1  0  0  0  0
 34 35  1  0  0  0  0
 34 37  1  0  0  0  0
 34 38  1  0  0  0  0
 35 36  1  0  0  0  0
 39 42  1  0  0  0  0
M  END
$$$$
