23479.pdb
 OpenBabel02232411173D

 49 51  0  0  0  0  0  0  0  0999 V2000
   37.4520    5.7890   14.2810 N   0  0  0  0  0  0  0  0  0  0  0  0
   39.1870    9.3540   16.0200 N   0  0  0  0  0  0  0  0  0  0  0  0
   35.0830    5.4900   13.5410 C   0  0  0  0  0  0  0  0  0  0  0  0
   36.5490    5.6240   13.2220 C   0  0  0  0  0  0  0  0  0  0  0  0
   37.0290    6.2150   15.6460 C   0  0  0  0  0  0  0  0  0  0  0  0
   37.3610    7.6960   15.9120 C   0  0  0  0  0  0  0  0  0  0  0  0
   38.8830    7.9240   15.7370 C   0  0  0  0  0  0  0  0  0  0  0  0
   40.5370    9.7220   16.3490 C   0  0  0  0  0  0  0  0  0  0  0  0
   41.4720    8.8470   16.9190 C   0  0  0  0  0  0  0  0  0  0  0  0
   42.7480    9.3300   17.2460 C   0  0  0  0  0  0  0  0  0  0  0  0
   43.1270   10.6370   16.9600 C   0  0  0  0  0  0  0  0  0  0  0  0
   42.1960   11.5240   16.3720 C   0  0  0  0  0  0  0  0  0  0  0  0
   42.5810   12.8520   15.9410 C   0  0  0  0  0  0  0  0  0  0  0  0
   43.6580   15.1600   15.6990 C   0  0  0  0  0  0  0  0  0  0  0  0
   44.4410   16.4470   15.9530 C   0  0  0  0  0  0  0  0  0  0  0  0
   42.8030   14.8420   14.6730 C   0  0  0  0  0  0  0  0  0  0  0  0
   41.3520   16.0870   13.2510 C   0  0  0  0  0  0  0  0  0  0  0  0
   41.6000   17.5680   12.8250 C   0  0  0  0  0  0  0  0  0  0  0  0
   42.1750   13.5500   14.8330 C   0  0  0  0  0  0  0  0  0  0  0  0
   40.8870   11.0750   16.1460 C   0  0  0  0  0  0  0  0  0  0  0  0
   39.3190    7.4900   14.3120 C   0  0  0  0  0  0  0  0  0  0  0  0
   38.9020    6.0400   14.0150 C   0  0  0  0  0  0  0  0  0  0  0  0
   36.9690    5.5020   12.0730 O   0  0  0  0  0  0  0  0  0  0  0  0
   45.5630   16.2890   16.4810 O   0  0  0  0  0  0  0  0  0  0  0  0
   43.9520   17.5210   15.6070 O   0  5  0  0  0  0  0  0  0  0  0  0
   42.7040   15.6200   13.5660 O   0  0  0  0  0  0  0  0  0  0  0  0
   42.7340   17.8810   12.4390 O   0  0  0  0  0  0  0  0  0  0  0  0
   40.6010   18.3170   12.8680 O   0  5  0  0  0  0  0  0  0  0  0  0
   40.8990   12.8930   13.5750 Br  0  0  0  0  0  0  0  0  0  0  0  0
   43.7670   13.8110   16.7950 S   0  0  0  0  0  0  0  0  0  0  0  0
   34.5140    5.1530   12.6430 H   0  0  0  0  0  0  0  0  0  0  0  0
   34.9060    4.7220   14.3400 H   0  0  0  0  0  0  0  0  0  0  0  0
   34.6620    6.4610   13.8950 H   0  0  0  0  0  0  0  0  0  0  0  0
   35.9360    6.0440   15.8090 H   0  0  0  0  0  0  0  0  0  0  0  0
   37.5780    5.5640   16.3850 H   0  0  0  0  0  0  0  0  0  0  0  0
   36.7750    8.3470   15.2260 H   0  0  0  0  0  0  0  0  0  0  0  0
   37.0650    7.9370   16.9630 H   0  0  0  0  0  0  0  0  0  0  0  0
   38.7780    9.9610   15.2830 H   0  0  0  0  0  0  0  0  0  0  0  0
   41.2380    7.8040   17.1180 H   0  0  0  0  0  0  0  0  0  0  0  0
   43.4530    8.6430   17.7200 H   0  0  0  0  0  0  0  0  0  0  0  0
   44.1470   10.9510   17.1870 H   0  0  0  0  0  0  0  0  0  0  0  0
   40.9960   15.4730   12.3980 H   0  0  0  0  0  0  0  0  0  0  0  0
   40.6640   15.9950   14.1170 H   0  0  0  0  0  0  0  0  0  0  0  0
   40.1080   11.7620   15.8090 H   0  0  0  0  0  0  0  0  0  0  0  0
   38.8840    8.1790   13.5560 H   0  0  0  0  0  0  0  0  0  0  0  0
   40.4340    7.5390   14.2490 H   0  0  0  0  0  0  0  0  0  0  0  0
   39.4810    5.3430   14.6840 H   0  0  0  0  0  0  0  0  0  0  0  0
   39.1370    5.7910   12.9480 H   0  0  0  0  0  0  0  0  0  0  0  0
   39.4060    7.2730   16.4890 H   0  0  0  0  0  0  0  0  0  0  0  0
  1  4  1  0  0  0  0
  1  5  1  0  0  0  0
  1 22  1  0  0  0  0
  2  7  1  0  0  0  0
  2  8  1  0  0  0  0
  2 38  1  0  0  0  0
  3  4  1  0  0  0  0
  3 31  1  0  0  0  0
  3 32  1  0  0  0  0
  3 33  1  0  0  0  0
  4 23  2  0  0  0  0
  5  6  1  0  0  0  0
  5 34  1  0  0  0  0
  5 35  1  0  0  0  0
  6  7  1  0  0  0  0
  6 36  1  0  0  0  0
  6 37  1  0  0  0  0
  7 21  1  0  0  0  0
  7 49  1  0  0  0  0
  8  9  2  0  0  0  0
  8 20  1  0  0  0  0
  9 10  1  0  0  0  0
  9 39  1  0  0  0  0
 10 11  2  0  0  0  0
 10 40  1  0  0  0  0
 11 12  1  0  0  0  0
 11 41  1  0  0  0  0
 12 13  1  0  0  0  0
 12 20  2  0  0  0  0
 13 19  2  0  0  0  0
 13 30  1  0  0  0  0
 14 15  1  0  0  0  0
 14 16  2  0  0  0  0
 14 30  1  0  0  0  0
 15 24  2  0  0  0  0
 15 25  1  0  0  0  0
 16 19  1  0  0  0  0
 16 26  1  0  0  0  0
 17 18  1  0  0  0  0
 17 26  1  0  0  0  0
 17 42  1  0  0  0  0
 17 43  1  0  0  0  0
 18 27  2  0  0  0  0
 18 28  1  0  0  0  0
 19 29  1  0  0  0  0
 20 44  1  0  0  0  0
 21 22  1  0  0  0  0
 21 45  1  0  0  0  0
 21 46  1  0  0  0  0
 22 47  1  0  0  0  0
 22 48  1  0  0  0  0
M  CHG  2  25  -1  28  -1
M  END
$$$$
