45
 OpenBabel02232411163D
Structure written by MMmdl.
 48 51  0  0  0  0  0  0  0  0999 V2000
    3.5160  -49.7890    5.8390 O   0  0  0  0  0  0  0  0  0  0  0  0
    2.7910  -48.9560    6.4200 C   0  0  0  0  0  0  0  0  0  0  0  0
    3.1700  -47.9450    7.0270 O   0  5  0  0  0  0  0  0  0  0  0  0
    1.2870  -49.2960    6.3820 C   0  0  0  0  0  0  0  0  0  0  0  0
   -0.4930  -50.7300    6.5650 C   0  0  0  0  0  0  0  0  0  0  0  0
   -1.3490  -51.8250    6.7780 C   0  0  0  0  0  0  0  0  0  0  0  0
   -2.6990  -51.6400    6.5200 C   0  0  0  0  0  0  0  0  0  0  0  0
   -3.1960  -50.3970    6.0600 C   0  0  0  0  0  0  0  0  0  0  0  0
   -2.3570  -49.3110    5.8540 C   0  0  0  0  0  0  0  0  0  0  0  0
   -0.9820  -49.4550    6.1050 C   0  0  0  0  0  0  0  0  0  0  0  0
    0.1600  -48.5690    6.0100 C   0  0  0  0  0  0  0  0  0  0  0  0
    0.0520  -47.1560    5.5610 C   0  0  0  0  0  0  0  0  0  0  0  0
    0.0060  -46.1380    6.7130 C   0  0  0  0  0  0  0  0  0  0  0  0
   -1.1890  -46.2680    7.6520 C   0  0  0  0  0  0  0  0  0  0  0  0
   -2.3470  -45.6630    6.9630 O   0  0  0  0  0  0  0  0  0  0  0  0
   -3.5520  -45.7000    7.6160 C   0  0  0  0  0  0  0  0  0  0  0  0
   -6.1050  -45.6900    8.7420 C   0  0  0  0  0  0  0  0  0  0  0  0
   -5.0560  -46.3210    9.3980 C   0  0  0  0  0  0  0  0  0  0  0  0
   -3.7740  -46.3460    8.8410 C   0  0  0  0  0  0  0  0  0  0  0  0
   -0.9740  -52.7840    7.1340 H   0  0  0  0  0  0  0  0  0  0  0  0
   -3.4000  -52.4610    6.6720 H   0  0  0  0  0  0  0  0  0  0  0  0
   -4.2650  -50.3010    5.8680 H   0  0  0  0  0  0  0  0  0  0  0  0
   -2.7670  -48.3620    5.5070 H   0  0  0  0  0  0  0  0  0  0  0  0
   -0.8890  -47.0430    4.9600 H   0  0  0  0  0  0  0  0  0  0  0  0
    0.9190  -46.8910    4.9090 H   0  0  0  0  0  0  0  0  0  0  0  0
    0.0020  -45.1120    6.2810 H   0  0  0  0  0  0  0  0  0  0  0  0
    0.9240  -46.2650    7.3410 H   0  0  0  0  0  0  0  0  0  0  0  0
   -1.0390  -45.6570    8.5690 H   0  0  0  0  0  0  0  0  0  0  0  0
   -1.4480  -47.3280    7.8570 H   0  0  0  0  0  0  0  0  0  0  0  0
   -2.9880  -46.8690    9.3750 H   0  0  0  0  0  0  0  0  0  0  0  0
   -5.8920  -45.0770    7.4890 C   0  0  0  0  0  0  0  0  0  0  0  0
   -4.6080  -45.0260    6.9380 C   0  0  0  0  0  0  0  0  0  0  0  0
   -4.3210  -44.3340    5.6360 C   0  0  0  0  0  0  0  0  0  0  0  0
   -5.5250  -43.5840    5.0470 C   0  0  0  0  0  0  0  0  0  0  0  0
   -6.8320  -44.3540    5.2560 C   0  0  0  0  0  0  0  0  0  0  0  0
   -7.0920  -44.5280    6.7600 C   0  0  0  0  0  0  0  0  0  0  0  0
   -5.2430  -46.8190   10.3500 H   0  0  0  0  0  0  0  0  0  0  0  0
   -7.1010  -45.6810    9.1780 H   0  0  0  0  0  0  0  0  0  0  0  0
   -3.9660  -45.0930    4.8980 H   0  0  0  0  0  0  0  0  0  0  0  0
   -3.5060  -43.5900    5.7920 H   0  0  0  0  0  0  0  0  0  0  0  0
   -5.6220  -42.5970    5.5500 H   0  0  0  0  0  0  0  0  0  0  0  0
   -5.3400  -43.4140    3.9650 H   0  0  0  0  0  0  0  0  0  0  0  0
   -6.7670  -45.3540    4.7700 H   0  0  0  0  0  0  0  0  0  0  0  0
   -7.6820  -43.8050    4.7980 H   0  0  0  0  0  0  0  0  0  0  0  0
   -7.3680  -43.5430    7.2070 H   0  0  0  0  0  0  0  0  0  0  0  0
   -7.9560  -45.2250    6.8950 H   0  0  0  0  0  0  0  0  0  0  0  0
    0.8940  -50.6050    6.7350 N   0  0  0  0  0  0  0  0  0  0  0  0
    1.4920  -51.3690    7.0260 H   0  0  0  0  0  0  0  0  0  0  0  0
  1  2  2  0  0  0  0
  2  3  1  0  0  0  0
  2  4  1  0  0  0  0
  4 11  2  0  0  0  0
  4 47  1  0  0  0  0
  5  6  2  0  0  0  0
  5 10  1  0  0  0  0
  5 47  1  0  0  0  0
  6  7  1  0  0  0  0
  6 20  1  0  0  0  0
  7  8  2  0  0  0  0
  7 21  1  0  0  0  0
  8  9  1  0  0  0  0
  8 22  1  0  0  0  0
  9 10  2  0  0  0  0
  9 23  1  0  0  0  0
 10 11  1  0  0  0  0
 11 12  1  0  0  0  0
 12 24  1  0  0  0  0
 12 25  1  0  0  0  0
 12 13  1  0  0  0  0
 13 14  1  0  0  0  0
 13 26  1  0  0  0  0
 13 27  1  0  0  0  0
 14 15  1  0  0  0  0
 14 28  1  0  0  0  0
 14 29  1  0  0  0  0
 15 16  1  0  0  0  0
 16 19  2  0  0  0  0
 16 32  1  0  0  0  0
 17 18  2  0  0  0  0
 17 31  1  0  0  0  0
 17 38  1  0  0  0  0
 18 19  1  0  0  0  0
 18 37  1  0  0  0  0
 19 30  1  0  0  0  0
 31 32  2  0  0  0  0
 31 36  1  0  0  0  0
 32 33  1  0  0  0  0
 33 34  1  0  0  0  0
 33 39  1  0  0  0  0
 33 40  1  0  0  0  0
 34 35  1  0  0  0  0
 34 41  1  0  0  0  0
 34 42  1  0  0  0  0
 35 36  1  0  0  0  0
 35 43  1  0  0  0  0
 35 44  1  0  0  0  0
 36 45  1  0  0  0  0
 36 46  1  0  0  0  0
 47 48  1  0  0  0  0
M  CHG  1   3  -1
M  END
$$$$
