18637-1
 OpenBabel02232411163D
Structure written by MMmdl.
 53 54  0  0  0  0  0  0  0  0999 V2000
   23.2890   10.7060   29.0720 C   0  0  0  0  0  0  0  0  0  0  0  0
   23.5470   10.9520   30.5440 C   0  0  0  0  0  0  0  0  0  0  0  0
   22.2750   11.0730   31.2860 O   0  0  0  0  0  0  0  0  0  0  0  0
   21.5970    9.9520   31.6220 C   0  0  0  0  0  0  0  0  0  0  0  0
   22.0430    8.7510   31.1920 N   0  0  0  0  0  0  0  0  0  0  0  0
   21.2820    7.6330   31.4990 C   0  0  0  0  0  0  0  0  0  0  0  0
   20.1200    7.7040   32.2610 C   0  0  0  0  0  0  0  0  0  0  0  0
   19.6700    8.9670   32.7290 C   0  0  0  0  0  0  0  0  0  0  0  0
   18.5190    9.0400   33.4740 N   0  0  0  0  0  0  0  0  0  0  0  0
   20.4160   10.1450   32.4000 C   0  0  0  0  0  0  0  0  0  0  0  0
   20.0380   11.4530   32.7670 C   0  0  0  0  0  0  0  0  0  0  0  0
   19.7740   12.5510   33.0320 N   0  0  0  0  0  0  0  0  0  0  0  0
   21.8290    6.4620   30.9340 N   0  0  0  0  0  0  0  0  0  0  0  0
   21.1900    5.2040   30.8270 C   0  0  0  0  0  0  0  0  0  0  0  0
   20.1000    4.9890   31.3120 O   0  0  0  0  0  0  0  0  0  0  0  0
   21.9630    4.1980   29.9870 C   0  0  0  0  0  0  0  0  0  0  0  0
   23.2880    3.8230   30.5810 C   0  0  0  0  0  0  0  0  0  0  0  0
   24.4350    4.6110   30.3350 C   0  0  0  0  0  0  0  0  0  0  0  0
   24.1830    5.6940   29.5040 O   0  0  0  0  0  0  0  0  0  0  0  0
   25.2370    6.6790   29.3310 C   0  0  0  0  0  0  0  0  0  0  0  0
   25.6810    4.2930   30.8790 C   0  0  0  0  0  0  0  0  0  0  0  0
   25.8160    3.1490   31.6840 C   0  0  0  0  0  0  0  0  0  0  0  0
   24.6760    2.3240   31.9060 C   0  0  0  0  0  0  0  0  0  0  0  0
   23.4320    2.6750   31.3660 C   0  0  0  0  0  0  0  0  0  0  0  0
   24.8980    1.2190   32.7070 O   0  0  0  0  0  0  0  0  0  0  0  0
   23.9990    0.0950   32.4960 C   0  0  0  0  0  0  0  0  0  0  0  0
   27.1140    2.8380   32.1840 N   0  0  0  0  0  0  0  0  0  0  0  0
   27.4250    2.2940   33.4620 C   0  0  0  0  0  0  0  0  0  0  0  0
   26.5500    1.9570   34.2350 O   0  0  0  0  0  0  0  0  0  0  0  0
   28.9000    2.1860   33.7090 C   0  0  0  0  0  0  0  0  0  0  0  0
   22.8960    9.6770   28.8970 H   0  0  0  0  0  0  0  0  0  0  0  0
   22.5640   11.4420   28.6580 H   0  0  0  0  0  0  0  0  0  0  0  0
   24.2500   10.8100   28.5100 H   0  0  0  0  0  0  0  0  0  0  0  0
   23.9630   11.9710   30.7340 H   0  0  0  0  0  0  0  0  0  0  0  0
   24.1730   10.1520   31.0020 H   0  0  0  0  0  0  0  0  0  0  0  0
   19.5370    6.8080   32.4870 H   0  0  0  0  0  0  0  0  0  0  0  0
   18.1460    9.9360   33.7870 H   0  0  0  0  0  0  0  0  0  0  0  0
   18.0060    8.1830   33.7510 H   0  0  0  0  0  0  0  0  0  0  0  0
   22.7600    6.5860   30.4630 H   0  0  0  0  0  0  0  0  0  0  0  0
   21.3350    3.2810   29.8570 H   0  0  0  0  0  0  0  0  0  0  0  0
   22.1350    4.6590   28.9760 H   0  0  0  0  0  0  0  0  0  0  0  0
   26.0810    6.2250   28.7690 H   0  0  0  0  0  0  0  0  0  0  0  0
   25.5590    7.0800   30.3170 H   0  0  0  0  0  0  0  0  0  0  0  0
   24.7170    7.4590   28.7300 H   0  0  0  0  0  0  0  0  0  0  0  0
   26.5560    4.9150   30.6710 H   0  0  0  0  0  0  0  0  0  0  0  0
   22.5610    2.0390   31.5430 H   0  0  0  0  0  0  0  0  0  0  0  0
   24.5000   -0.7170   33.0730 H   0  0  0  0  0  0  0  0  0  0  0  0
   22.9950    0.3200   32.9170 H   0  0  0  0  0  0  0  0  0  0  0  0
   23.9510   -0.1640   31.4160 H   0  0  0  0  0  0  0  0  0  0  0  0
   27.8930    3.2380   31.6270 H   0  0  0  0  0  0  0  0  0  0  0  0
   29.1190    1.7340   34.7090 H   0  0  0  0  0  0  0  0  0  0  0  0
   29.4010    1.5480   32.9330 H   0  0  0  0  0  0  0  0  0  0  0  0
   29.3960    3.1920   33.6750 H   0  0  0  0  0  0  0  0  0  0  0  0
  1  2  1  0  0  0  0
  1 31  1  0  0  0  0
  1 32  1  0  0  0  0
  1 33  1  0  0  0  0
  2  3  1  0  0  0  0
  2 34  1  0  0  0  0
  2 35  1  0  0  0  0
  3  4  1  0  0  0  0
  4 10  2  0  0  0  0
  4  5  1  0  0  0  0
  5  6  2  0  0  0  0
  6  7  1  0  0  0  0
  6 13  1  0  0  0  0
  7  8  2  0  0  0  0
  7 36  1  0  0  0  0
  8  9  1  0  0  0  0
  8 10  1  0  0  0  0
  9 37  1  0  0  0  0
  9 38  1  0  0  0  0
 10 11  1  0  0  0  0
 11 12  3  0  0  0  0
 13 14  1  0  0  0  0
 13 39  1  0  0  0  0
 14 15  2  0  0  0  0
 14 16  1  0  0  0  0
 16 17  1  0  0  0  0
 16 40  1  0  0  0  0
 16 41  1  0  0  0  0
 17 24  2  0  0  0  0
 17 18  1  0  0  0  0
 18 19  1  0  0  0  0
 18 21  2  0  0  0  0
 19 20  1  0  0  0  0
 20 42  1  0  0  0  0
 20 43  1  0  0  0  0
 20 44  1  0  0  0  0
 21 22  1  0  0  0  0
 21 45  1  0  0  0  0
 22 23  2  0  0  0  0
 22 27  1  0  0  0  0
 23 24  1  0  0  0  0
 23 25  1  0  0  0  0
 24 46  1  0  0  0  0
 25 26  1  0  0  0  0
 26 47  1  0  0  0  0
 26 48  1  0  0  0  0
 26 49  1  0  0  0  0
 27 28  1  0  0  0  0
 27 50  1  0  0  0  0
 28 29  2  0  0  0  0
 28 30  1  0  0  0  0
 30 51  1  0  0  0  0
 30 52  1  0  0  0  0
 30 53  1  0  0  0  0
M  END
$$$$
