23466
 OpenBabel02232411173D
Structure written by MMmdl.
 29 30  0  0  0  0  0  0  0  0999 V2000
   39.5710    9.2340   17.3460 N   0  0  0  0  0  0  0  0  0  0  0  0
   40.8950    9.7750   17.3570 C   0  0  0  0  0  0  0  0  0  0  0  0
   41.9310    9.0880   18.0120 C   0  0  0  0  0  0  0  0  0  0  0  0
   43.2010    9.6720   18.0680 C   0  0  0  0  0  0  0  0  0  0  0  0
   43.4490   10.9070   17.4780 C   0  0  0  0  0  0  0  0  0  0  0  0
   42.4080   11.6110   16.8250 C   0  0  0  0  0  0  0  0  0  0  0  0
   42.6800   12.9000   16.2190 C   0  0  0  0  0  0  0  0  0  0  0  0
   43.8210   13.9830   16.9880 S   0  0  0  0  0  0  0  0  0  0  0  0
   43.6600   15.2230   15.7790 C   0  0  0  0  0  0  0  0  0  0  0  0
   44.4370   16.5290   15.9270 C   0  0  0  0  0  0  0  0  0  0  0  0
   43.9470   17.5760   15.5110 O   0  0  0  0  0  0  0  0  0  0  0  0
   45.5610   16.4050   16.4630 O   0  5  0  0  0  0  0  0  0  0  0  0
   42.8060   14.7930   14.7960 C   0  0  0  0  0  0  0  0  0  0  0  0
   42.6730   15.4660   13.6230 O   0  0  0  0  0  0  0  0  0  0  0  0
   41.3330   15.9860   13.3420 C   0  0  0  0  0  0  0  0  0  0  0  0
   41.5850   17.4670   12.9010 C   0  0  0  0  0  0  0  0  0  0  0  0
   40.5910   18.2230   12.9760 O   0  0  0  0  0  0  0  0  0  0  0  0
   42.7030   17.7850   12.4760 O   0  5  0  0  0  0  0  0  0  0  0  0
   42.2290   13.4920   15.0710 C   0  0  0  0  0  0  0  0  0  0  0  0
   40.9350   12.7020   13.9130 Br  0  0  0  0  0  0  0  0  0  0  0  0
   41.1290   11.0400   16.7810 C   0  0  0  0  0  0  0  0  0  0  0  0
   39.5230    8.2340   17.5990 H   0  0  0  0  0  0  0  0  0  0  0  0
   39.0460    9.4130   16.4770 H   0  0  0  0  0  0  0  0  0  0  0  0
   41.7530    8.1190   18.4760 H   0  0  0  0  0  0  0  0  0  0  0  0
   44.0000    9.1320   18.5830 H   0  0  0  0  0  0  0  0  0  0  0  0
   44.4620   11.3100   17.5250 H   0  0  0  0  0  0  0  0  0  0  0  0
   40.9440   15.3620   12.5090 H   0  0  0  0  0  0  0  0  0  0  0  0
   40.6610   15.9080   14.2230 H   0  0  0  0  0  0  0  0  0  0  0  0
   40.2860   11.5590   16.3160 H   0  0  0  0  0  0  0  0  0  0  0  0
  1  2  1  0  0  0  0
  1 22  1  0  0  0  0
  1 23  1  0  0  0  0
  2 21  2  0  0  0  0
  2  3  1  0  0  0  0
  3  4  2  0  0  0  0
  3 24  1  0  0  0  0
  4  5  1  0  0  0  0
  4 25  1  0  0  0  0
  5  6  2  0  0  0  0
  5 26  1  0  0  0  0
  6  7  1  0  0  0  0
  6 21  1  0  0  0  0
  7 19  2  0  0  0  0
  7  8  1  0  0  0  0
  8  9  1  0  0  0  0
  9 10  1  0  0  0  0
  9 13  2  0  0  0  0
 10 11  2  0  0  0  0
 10 12  1  0  0  0  0
 13 14  1  0  0  0  0
 13 19  1  0  0  0  0
 14 15  1  0  0  0  0
 15 16  1  0  0  0  0
 15 27  1  0  0  0  0
 15 28  1  0  0  0  0
 16 17  2  0  0  0  0
 16 18  1  0  0  0  0
 19 20  1  0  0  0  0
 21 29  1  0  0  0  0
M  CHG  2  12  -1  18  -1
M  END
$$$$
