CAT-13i
 OpenBabel02232411143D
Structure written by MMmdl.
 46 49  0  0  1  0  0  0  0  0999 V2000
   11.6340   -2.2020    1.2700 C   0  0  0  0  0  0  0  0  0  0  0  0
   12.9800   -2.3070    0.6720 N   0  0  0  0  0  0  0  0  0  0  0  0
   14.1600   -2.3960    1.4110 C   0  0  0  0  0  0  0  0  0  0  0  0
   14.2900   -2.4500    2.7670 N   0  0  0  0  0  0  0  0  0  0  0  0
   15.2560   -2.4760    0.5470 N   0  3  0  0  0  0  0  0  0  0  0  0
   14.7920   -2.7870   -0.8570 C   0  0  2  0  0  0  0  0  0  0  0  0
   14.9690   -4.2890   -1.1540 C   0  0  0  0  0  0  0  0  0  0  0  0
   13.9240   -5.1560   -0.4730 C   0  0  0  0  0  0  0  0  0  0  0  0
   14.2810   -6.5110    0.1230 C   0  0  0  0  0  0  0  0  0  0  0  0
   13.9070   -5.3680    1.0390 C   0  0  0  0  0  0  0  0  0  0  0  0
   15.4420   -1.7830   -1.7890 C   0  0  0  0  0  0  0  0  0  0  0  0
   16.2980   -2.1550   -2.8300 C   0  0  0  0  0  0  0  0  0  0  0  0
   16.8240   -1.1660   -3.6720 C   0  0  0  0  0  0  0  0  0  0  0  0
   16.5270    0.1830   -3.4710 C   0  0  0  0  0  0  0  0  0  0  0  0
   15.7090    0.5710   -2.3960 C   0  0  0  0  0  0  0  0  0  0  0  0
   15.4180    1.9940   -2.1030 C   0  0  0  0  0  0  0  0  0  0  0  0
   15.0330    2.8890   -3.1130 C   0  0  0  0  0  0  0  0  0  0  0  0
   14.6770    4.2030   -2.7890 C   0  0  0  0  0  0  0  0  0  0  0  0
   14.6850    4.6380   -1.4600 C   0  0  0  0  0  0  0  0  0  0  0  0
   15.0910    3.7420   -0.4690 C   0  0  0  0  0  0  0  0  0  0  0  0
   15.0480    4.2210    1.1880 Cl  0  0  0  0  0  0  0  0  0  0  0  0
   15.4840    2.4390   -0.7720 C   0  0  0  0  0  0  0  0  0  0  0  0
   15.1570   -0.4230   -1.5760 C   0  0  0  0  0  0  0  0  0  0  0  0
   13.2590   -2.4820   -0.7660 C   0  0  0  0  0  0  0  0  0  0  0  0
   12.4140   -2.3720   -1.5950 O   0  0  0  0  0  0  0  0  0  0  0  0
   11.6540   -2.5040    2.3500 H   0  0  0  0  0  0  0  0  0  0  0  0
   11.2820   -1.1400    1.1840 H   0  0  0  0  0  0  0  0  0  0  0  0
   10.9310   -2.8860    0.7230 H   0  0  0  0  0  0  0  0  0  0  0  0
   13.5770   -2.0260    3.4070 H   0  0  0  0  0  0  0  0  0  0  0  0
   16.1660   -2.8590    0.9150 H   0  0  0  0  0  0  0  0  0  0  0  0
   16.0000   -4.5960   -0.8410 H   0  0  0  0  0  0  0  0  0  0  0  0
   14.8750   -4.4580   -2.2590 H   0  0  0  0  0  0  0  0  0  0  0  0
   12.9460   -5.0930   -0.9760 H   0  0  0  0  0  0  0  0  0  0  0  0
   13.5640   -7.3350   -0.0060 H   0  0  0  0  0  0  0  0  0  0  0  0
   15.3230   -6.8430    0.0850 H   0  0  0  0  0  0  0  0  0  0  0  0
   14.6860   -4.9160    1.6610 H   0  0  0  0  0  0  0  0  0  0  0  0
   12.9400   -5.3900    1.5570 H   0  0  0  0  0  0  0  0  0  0  0  0
   16.5620   -3.2000   -2.9910 H   0  0  0  0  0  0  0  0  0  0  0  0
   17.4850   -1.4530   -4.4950 H   0  0  0  0  0  0  0  0  0  0  0  0
   16.9350    0.9340   -4.1510 H   0  0  0  0  0  0  0  0  0  0  0  0
   14.9930    2.5580   -4.1560 H   0  0  0  0  0  0  0  0  0  0  0  0
   14.3680    4.8910   -3.5850 H   0  0  0  0  0  0  0  0  0  0  0  0
   14.3560    5.6490   -1.2050 H   0  0  0  0  0  0  0  0  0  0  0  0
   15.8250    1.7610    0.0110 H   0  0  0  0  0  0  0  0  0  0  0  0
   14.4990   -0.1380   -0.7560 H   0  0  0  0  0  0  0  0  0  0  0  0
   15.2650   -2.4240    3.1750 H   0  0  0  0  0  0  0  0  0  0  0  0
  1  2  1  0  0  0  0
  1 26  1  0  0  0  0
  1 27  1  0  0  0  0
  1 28  1  0  0  0  0
  2  3  1  0  0  0  0
  2 24  1  0  0  0  0
  3  4  1  0  0  0  0
  3  5  2  0  0  0  0
  4 29  1  0  0  0  0
  4 46  1  0  0  0  0
  5  6  1  0  0  0  0
  5 30  1  0  0  0  0
  6  7  1  6  0  0  0
  6 11  1  0  0  0  0
  6 24  1  0  0  0  0
  7  8  1  0  0  0  0
  7 31  1  0  0  0  0
  7 32  1  0  0  0  0
  8  9  1  0  0  0  0
  8 10  1  0  0  0  0
  8 33  1  0  0  0  0
  9 10  1  0  0  0  0
  9 34  1  0  0  0  0
  9 35  1  0  0  0  0
 10 36  1  0  0  0  0
 10 37  1  0  0  0  0
 11 12  2  0  0  0  0
 11 23  1  0  0  0  0
 12 13  1  0  0  0  0
 12 38  1  0  0  0  0
 13 14  2  0  0  0  0
 13 39  1  0  0  0  0
 14 15  1  0  0  0  0
 14 40  1  0  0  0  0
 15 16  1  0  0  0  0
 15 23  2  0  0  0  0
 16 17  2  0  0  0  0
 16 22  1  0  0  0  0
 17 18  1  0  0  0  0
 17 41  1  0  0  0  0
 18 19  2  0  0  0  0
 18 42  1  0  0  0  0
 19 20  1  0  0  0  0
 19 43  1  0  0  0  0
 20 21  1  0  0  0  0
 20 22  2  0  0  0  0
 22 44  1  0  0  0  0
 23 45  1  0  0  0  0
 24 25  2  0  0  0  0
M  CHG  1   5   1
M  END
$$$$
