18635-1
 OpenBabel02232411163D
Structure written by MMmdl.
 44 45  0  0  0  0  0  0  0  0999 V2000
   23.2270   10.8070   29.0960 C   0  0  0  0  0  0  0  0  0  0  0  0
   23.4620   11.0690   30.5690 C   0  0  0  0  0  0  0  0  0  0  0  0
   22.1810   11.1450   31.3000 O   0  0  0  0  0  0  0  0  0  0  0  0
   21.5380   10.0070   31.6420 C   0  0  0  0  0  0  0  0  0  0  0  0
   22.0260    8.8130   31.2370 N   0  0  0  0  0  0  0  0  0  0  0  0
   21.2960    7.6770   31.5540 C   0  0  0  0  0  0  0  0  0  0  0  0
   20.1230    7.7210   32.3000 C   0  0  0  0  0  0  0  0  0  0  0  0
   19.6300    8.9790   32.7430 C   0  0  0  0  0  0  0  0  0  0  0  0
   18.4680    9.0330   33.4710 N   0  0  0  0  0  0  0  0  0  0  0  0
   20.3440   10.1730   32.4060 C   0  0  0  0  0  0  0  0  0  0  0  0
   19.9280   11.4760   32.7530 C   0  0  0  0  0  0  0  0  0  0  0  0
   19.6390   12.5720   32.9970 N   0  0  0  0  0  0  0  0  0  0  0  0
   21.8910    6.5160   31.0070 N   0  0  0  0  0  0  0  0  0  0  0  0
   21.3200    5.2230   30.9110 C   0  0  0  0  0  0  0  0  0  0  0  0
   20.2560    4.9460   31.4220 O   0  0  0  0  0  0  0  0  0  0  0  0
   22.1350    4.2610   30.0590 C   0  0  0  0  0  0  0  0  0  0  0  0
   23.4690    3.9400   30.6810 C   0  0  0  0  0  0  0  0  0  0  0  0
   24.6630    4.6060   30.3470 C   0  0  0  0  0  0  0  0  0  0  0  0
   24.7920    5.6540   29.2840 C   0  0  0  0  0  0  0  0  0  0  0  0
   25.8400    4.2700   31.0470 C   0  0  0  0  0  0  0  0  0  0  0  0
   25.8450    3.2940   32.0360 C   0  0  0  0  0  0  0  0  0  0  0  0
   24.6620    2.5990   32.3450 C   0  0  0  0  0  0  0  0  0  0  0  0
   24.6730    1.5420   33.4000 C   0  0  0  0  0  0  0  0  0  0  0  0
   23.4910    2.9230   31.6530 C   0  0  0  0  0  0  0  0  0  0  0  0
   22.8800    9.7610   28.9200 H   0  0  0  0  0  0  0  0  0  0  0  0
   22.4750   11.5090   28.6720 H   0  0  0  0  0  0  0  0  0  0  0  0
   24.1860   10.9500   28.5400 H   0  0  0  0  0  0  0  0  0  0  0  0
   23.8350   12.1050   30.7580 H   0  0  0  0  0  0  0  0  0  0  0  0
   24.1120   10.2950   31.0370 H   0  0  0  0  0  0  0  0  0  0  0  0
   19.5680    6.8120   32.5390 H   0  0  0  0  0  0  0  0  0  0  0  0
   17.9740    8.1670   33.7570 H   0  0  0  0  0  0  0  0  0  0  0  0
   18.0710    9.9230   33.7720 H   0  0  0  0  0  0  0  0  0  0  0  0
   22.8230    6.6760   30.5770 H   0  0  0  0  0  0  0  0  0  0  0  0
   21.5470    3.3110   29.9430 H   0  0  0  0  0  0  0  0  0  0  0  0
   22.2550    4.7020   29.0390 H   0  0  0  0  0  0  0  0  0  0  0  0
   25.0990    6.6290   29.7480 H   0  0  0  0  0  0  0  0  0  0  0  0
   25.6080    5.3630   28.5720 H   0  0  0  0  0  0  0  0  0  0  0  0
   23.8710    5.8210   28.6930 H   0  0  0  0  0  0  0  0  0  0  0  0
   26.7730    4.7910   30.8050 H   0  0  0  0  0  0  0  0  0  0  0  0
   26.7720    3.0640   32.5690 H   0  0  0  0  0  0  0  0  0  0  0  0
   23.7140    0.9730   33.4380 H   0  0  0  0  0  0  0  0  0  0  0  0
   25.4980    0.8090   33.2130 H   0  0  0  0  0  0  0  0  0  0  0  0
   24.8450    2.0040   34.4040 H   0  0  0  0  0  0  0  0  0  0  0  0
   22.5780    2.3650   31.8680 H   0  0  0  0  0  0  0  0  0  0  0  0
  1  2  1  0  0  0  0
  1 25  1  0  0  0  0
  1 26  1  0  0  0  0
  1 27  1  0  0  0  0
  2  3  1  0  0  0  0
  2 28  1  0  0  0  0
  2 29  1  0  0  0  0
  3  4  1  0  0  0  0
  4 10  2  0  0  0  0
  4  5  1  0  0  0  0
  5  6  2  0  0  0  0
  6  7  1  0  0  0  0
  6 13  1  0  0  0  0
  7  8  2  0  0  0  0
  7 30  1  0  0  0  0
  8  9  1  0  0  0  0
  8 10  1  0  0  0  0
  9 31  1  0  0  0  0
  9 32  1  0  0  0  0
 10 11  1  0  0  0  0
 11 12  3  0  0  0  0
 13 14  1  0  0  0  0
 13 33  1  0  0  0  0
 14 15  2  0  0  0  0
 14 16  1  0  0  0  0
 16 17  1  0  0  0  0
 16 34  1  0  0  0  0
 16 35  1  0  0  0  0
 17 24  2  0  0  0  0
 17 18  1  0  0  0  0
 18 19  1  0  0  0  0
 18 20  2  0  0  0  0
 19 36  1  0  0  0  0
 19 37  1  0  0  0  0
 19 38  1  0  0  0  0
 20 21  1  0  0  0  0
 20 39  1  0  0  0  0
 21 22  2  0  0  0  0
 21 40  1  0  0  0  0
 22 23  1  0  0  0  0
 22 24  1  0  0  0  0
 23 41  1  0  0  0  0
 23 42  1  0  0  0  0
 23 43  1  0  0  0  0
 24 44  1  0  0  0  0
M  END
$$$$
