p38a_2p
 OpenBabel02232411163D
Structure written by MMmdl.
 58 61  0  0  0  0  0  0  0  0999 V2000
   38.2390   36.5070   17.2420 C   0  0  0  0  0  0  0  0  0  0  0  0
   34.4990   35.1990   21.4210 C   0  0  0  0  0  0  0  0  0  0  0  0
   37.4840   36.0860   18.3340 C   0  0  0  0  0  0  0  0  0  0  0  0
   33.7880   39.3680   23.7720 C   0  0  0  0  0  0  0  0  0  0  0  0
   34.5630   38.0720   21.4620 C   0  0  0  0  0  0  0  0  0  0  0  0
   35.0090   37.3760   20.2860 C   0  0  0  0  0  0  0  0  0  0  0  0
   37.5570   36.6360   16.0250 C   0  0  0  0  0  0  0  0  0  0  0  0
   36.2000   36.3430   15.8670 C   0  0  0  0  0  0  0  0  0  0  0  0
   35.4660   35.9130   16.9780 C   0  0  0  0  0  0  0  0  0  0  0  0
   34.1190   37.3500   22.6070 C   0  0  0  0  0  0  0  0  0  0  0  0
   34.5570   39.4910   21.5540 C   0  0  0  0  0  0  0  0  0  0  0  0
   35.0070   36.0240   20.2930 C   0  0  0  0  0  0  0  0  0  0  0  0
   36.1140   35.7730   18.2090 C   0  0  0  0  0  0  0  0  0  0  0  0
   38.0530   35.9720   19.5260 F   0  0  0  0  0  0  0  0  0  0  0  0
   35.4320   35.1700   19.2760 O   0  0  0  0  0  0  0  0  0  0  0  0
   34.2030   40.1460   22.6650 N   0  0  0  0  0  0  0  0  0  0  0  0
   34.4340   33.9880   21.4270 O   0  0  0  0  0  0  0  0  0  0  0  0
   34.0840   35.9430   22.5820 N   0  0  0  0  0  0  0  0  0  0  0  0
   33.7390   37.9900   23.7630 N   0  0  0  0  0  0  0  0  0  0  0  0
   33.3960   40.0860   24.8740 N   0  0  0  0  0  0  0  0  0  0  0  0
   39.2990   36.7610   17.3370 H   0  0  0  0  0  0  0  0  0  0  0  0
   35.3430   37.9680   19.4310 H   0  0  0  0  0  0  0  0  0  0  0  0
   35.7030   36.4580   14.9010 H   0  0  0  0  0  0  0  0  0  0  0  0
   34.3960   35.7050   16.8770 H   0  0  0  0  0  0  0  0  0  0  0  0
   34.8490   40.0960   20.6800 H   0  0  0  0  0  0  0  0  0  0  0  0
   33.5750   41.1100   24.8840 H   0  0  0  0  0  0  0  0  0  0  0  0
   38.2330   37.0960   14.9740 F   0  0  0  0  0  0  0  0  0  0  0  0
   33.4830   38.3800   28.3210 C   0  0  0  0  0  0  0  0  0  0  0  0
   34.0300   38.8120   26.9550 C   0  0  0  0  0  0  0  0  0  0  0  0
   32.9240   39.5660   26.1910 C   0  0  0  0  0  0  0  0  0  0  0  0
   31.6640   38.6900   26.0680 C   0  0  0  0  0  0  0  0  0  0  0  0
   31.2270   38.2230   27.4640 C   0  0  0  0  0  0  0  0  0  0  0  0
   32.2950   37.5680   28.1840 O   0  0  0  0  0  0  0  0  0  0  0  0
   33.2460   39.2670   28.9540 H   0  0  0  0  0  0  0  0  0  0  0  0
   34.1860   37.6860   28.8370 H   0  0  0  0  0  0  0  0  0  0  0  0
   34.3520   37.9160   26.3720 H   0  0  0  0  0  0  0  0  0  0  0  0
   34.9150   39.4780   27.0990 H   0  0  0  0  0  0  0  0  0  0  0  0
   32.6550   40.5030   26.7680 H   0  0  0  0  0  0  0  0  0  0  0  0
   30.8380   39.2710   25.5930 H   0  0  0  0  0  0  0  0  0  0  0  0
   31.8770   37.8030   25.4240 H   0  0  0  0  0  0  0  0  0  0  0  0
   30.8580   39.0780   28.0730 H   0  0  0  0  0  0  0  0  0  0  0  0
   30.4610   37.4170   27.3910 H   0  0  0  0  0  0  0  0  0  0  0  0
   33.5110   35.1900   23.7490 C   0  0  0  0  0  0  0  0  0  0  0  0
   34.0060   34.1830   23.7830 H   0  0  0  0  0  0  0  0  0  0  0  0
   33.7430   35.7550   24.6930 H   0  0  0  0  0  0  0  0  0  0  0  0
   31.9850   35.0400   23.5950 C   0  0  0  0  0  0  0  0  0  0  0  0
   31.5600   36.0290   23.2720 H   0  0  0  0  0  0  0  0  0  0  0  0
   31.7480   34.3020   22.7890 H   0  0  0  0  0  0  0  0  0  0  0  0
   31.2580   34.6580   24.8880 C   0  0  0  0  0  0  0  0  0  0  0  0
   30.1530   34.7260   24.6580 H   0  0  0  0  0  0  0  0  0  0  0  0
   31.4490   35.4570   25.6550 H   0  0  0  0  0  0  0  0  0  0  0  0
   31.6170   33.0790   25.5670 S   0  0  0  0  0  0  0  0  0  0  0  0
   30.6020   32.7280   26.5940 O   0  0  0  0  0  0  0  0  0  0  0  0
   32.9720   33.0650   26.1610 O   0  0  0  0  0  0  0  0  0  0  0  0
   31.5210   31.9490   24.2500 C   0  0  0  0  0  0  0  0  0  0  0  0
   32.4380   31.9430   23.6100 H   0  0  0  0  0  0  0  0  0  0  0  0
   31.3800   30.8940   24.6030 H   0  0  0  0  0  0  0  0  0  0  0  0
   30.6540   32.1700   23.5730 H   0  0  0  0  0  0  0  0  0  0  0  0
  1  3  2  0  0  0  0
  1  7  1  0  0  0  0
  1 21  1  0  0  0  0
  2 12  1  0  0  0  0
  2 17  2  0  0  0  0
  2 18  1  0  0  0  0
  3 13  1  0  0  0  0
  3 14  1  0  0  0  0
  4 16  2  0  0  0  0
  4 19  1  0  0  0  0
  4 20  1  0  0  0  0
  5  6  1  0  0  0  0
  5 10  1  0  0  0  0
  5 11  2  0  0  0  0
  6 12  2  0  0  0  0
  6 22  1  0  0  0  0
  7  8  2  0  0  0  0
  7 27  1  0  0  0  0
  8  9  1  0  0  0  0
  8 23  1  0  0  0  0
  9 13  2  0  0  0  0
  9 24  1  0  0  0  0
 10 18  1  0  0  0  0
 10 19  2  0  0  0  0
 11 16  1  0  0  0  0
 11 25  1  0  0  0  0
 12 15  1  0  0  0  0
 13 15  1  0  0  0  0
 18 43  1  0  0  0  0
 20 26  1  0  0  0  0
 20 30  1  0  0  0  0
 28 29  1  0  0  0  0
 28 33  1  0  0  0  0
 28 34  1  0  0  0  0
 28 35  1  0  0  0  0
 29 30  1  0  0  0  0
 29 36  1  0  0  0  0
 29 37  1  0  0  0  0
 30 31  1  0  0  0  0
 30 38  1  0  0  0  0
 31 32  1  0  0  0  0
 31 39  1  0  0  0  0
 31 40  1  0  0  0  0
 32 33  1  0  0  0  0
 32 41  1  0  0  0  0
 32 42  1  0  0  0  0
 43 44  1  0  0  0  0
 43 45  1  0  0  0  0
 43 46  1  0  0  0  0
 46 47  1  0  0  0  0
 46 48  1  0  0  0  0
 46 49  1  0  0  0  0
 49 50  1  0  0  0  0
 49 51  1  0  0  0  0
 49 52  1  0  0  0  0
 52 53  2  0  0  0  0
 52 54  2  0  0  0  0
 52 55  1  0  0  0  0
 55 56  1  0  0  0  0
 55 57  1  0  0  0  0
 55 58  1  0  0  0  0
M  END
$$$$
