CAT-13a
                    3D
 Schrodinger Suite 2022-3.
 39 41  0  0  1  0  0  0  0  0999 V2000
   11.8400   -2.4710    1.2100 C   0  0  0  0  0  0  0  0  0  0  0  0
   13.1440   -2.7890    0.5920 N   0  0  0  0  0  0  0  0  0  0  0  0
   14.3340   -2.6910    1.3190 C   0  0  0  0  0  0  0  0  0  0  0  0
   14.4330   -2.6270    2.6780 N   0  0  0  0  0  0  0  0  0  0  0  0
   15.4220   -2.7560    0.4560 N   0  3  0  0  0  0  0  0  0  0  0  0
   14.9880   -3.0480   -0.9660 C   0  0  2  0  0  0  0  0  0  0  0  0
   15.4170   -4.4530   -1.3540 C   0  0  0  0  0  0  0  0  0  0  0  0
   15.4280   -1.9100   -1.8690 C   0  0  0  0  0  0  0  0  0  0  0  0
   16.0790   -2.1340   -3.0870 C   0  0  0  0  0  0  0  0  0  0  0  0
   16.4160   -1.0470   -3.9040 C   0  0  0  0  0  0  0  0  0  0  0  0
   16.1200    0.2600   -3.5150 C   0  0  0  0  0  0  0  0  0  0  0  0
   15.4810    0.4980   -2.2840 C   0  0  0  0  0  0  0  0  0  0  0  0
   15.1860    1.8740   -1.8210 C   0  0  0  0  0  0  0  0  0  0  0  0
   14.5580    2.8050   -2.6620 C   0  0  0  0  0  0  0  0  0  0  0  0
   14.2980    4.1030   -2.2090 C   0  0  0  0  0  0  0  0  0  0  0  0
   14.6290    4.4810   -0.9050 C   0  0  0  0  0  0  0  0  0  0  0  0
   15.2190    3.5320   -0.0670 C   0  0  0  0  0  0  0  0  0  0  0  0
   15.5370    3.9280    1.5790 Cl  0  0  0  0  0  0  0  0  0  0  0  0
   15.5230    2.2440   -0.5090 C   0  0  0  0  0  0  0  0  0  0  0  0
   15.1300   -0.5930   -1.4790 C   0  0  0  0  0  0  0  0  0  0  0  0
   13.4250   -2.9930   -0.8420 C   0  0  0  0  0  0  0  0  0  0  0  0
   12.5560   -3.0780   -1.6490 O   0  0  0  0  0  0  0  0  0  0  0  0
   11.7970   -1.3720    1.4380 H   0  0  0  0  0  0  0  0  0  0  0  0
   11.0110   -2.7510    0.5070 H   0  0  0  0  0  0  0  0  0  0  0  0
   11.7180   -3.0530    2.1650 H   0  0  0  0  0  0  0  0  0  0  0  0
   15.3950   -2.5240    3.1040 H   0  0  0  0  0  0  0  0  0  0  0  0
   16.3700   -3.0270    0.8160 H   0  0  0  0  0  0  0  0  0  0  0  0
   16.5360   -4.5210   -1.3800 H   0  0  0  0  0  0  0  0  0  0  0  0
   15.0470   -5.2090   -0.6180 H   0  0  0  0  0  0  0  0  0  0  0  0
   15.0220   -4.7330   -2.3630 H   0  0  0  0  0  0  0  0  0  0  0  0
   16.3290   -3.1440   -3.4140 H   0  0  0  0  0  0  0  0  0  0  0  0
   16.9270   -1.2300   -4.8560 H   0  0  0  0  0  0  0  0  0  0  0  0
   16.3930    1.0960   -4.1690 H   0  0  0  0  0  0  0  0  0  0  0  0
   14.2550    2.5100   -3.6710 H   0  0  0  0  0  0  0  0  0  0  0  0
   13.8180    4.8230   -2.8830 H   0  0  0  0  0  0  0  0  0  0  0  0
   14.4170    5.4910   -0.5470 H   0  0  0  0  0  0  0  0  0  0  0  0
   16.0010    1.5200    0.1520 H   0  0  0  0  0  0  0  0  0  0  0  0
   14.6230   -0.4230   -0.5320 H   0  0  0  0  0  0  0  0  0  0  0  0
   13.6850   -2.1730    3.2580 H   0  0  0  0  0  0  0  0  0  0  0  0
  1  2  1  0  0  0  0
  1 23  1  0  0  0  0
  1 24  1  0  0  0  0
  1 25  1  0  0  0  0
  2  3  1  0  0  0  0
  2 21  1  0  0  0  0
  3  4  1  0  0  0  0
  3  5  2  0  0  0  0
  4 26  1  0  0  0  0
  4 39  1  0  0  0  0
  5  6  1  0  0  0  0
  5 27  1  0  0  0  0
  6  7  1  0  0  0  0
  6  8  1  0  0  0  0
  6 21  1  0  0  0  0
  7 28  1  0  0  0  0
  7 29  1  0  0  0  0
  7 30  1  0  0  0  0
  8  9  2  0  0  0  0
  8 20  1  0  0  0  0
  9 10  1  0  0  0  0
  9 31  1  0  0  0  0
 10 11  2  0  0  0  0
 10 32  1  0  0  0  0
 11 12  1  0  0  0  0
 11 33  1  0  0  0  0
 12 13  1  0  0  0  0
 12 20  2  0  0  0  0
 13 14  2  0  0  0  0
 13 19  1  0  0  0  0
 14 15  1  0  0  0  0
 14 34  1  0  0  0  0
 15 16  2  0  0  0  0
 15 35  1  0  0  0  0
 16 17  1  0  0  0  0
 16 36  1  0  0  0  0
 17 18  1  0  0  0  0
 17 19  2  0  0  0  0
 19 37  1  0  0  0  0
 20 38  1  0  0  0  0
 21 22  2  0  0  0  0
M  CHG  1   5   1
M  END
$$$$
