p38a_2g
 OpenBabel02232411163D
Structure written by MMmdl.
 46 49  0  0  0  0  0  0  0  0999 V2000
   31.7900   39.0530   26.1730 C   0  0  0  0  0  0  0  0  0  0  0  0
   31.3080   38.4080   27.4790 C   0  0  0  0  0  0  0  0  0  0  0  0
   33.3940   38.9000   28.5960 C   0  0  0  0  0  0  0  0  0  0  0  0
   33.9690   39.5790   27.3470 C   0  0  0  0  0  0  0  0  0  0  0  0
   38.4240   36.4590   17.2690 C   0  0  0  0  0  0  0  0  0  0  0  0
   31.9530   38.9890   28.6350 O   0  0  0  0  0  0  0  0  0  0  0  0
   34.5270   35.0770   21.0410 C   0  0  0  0  0  0  0  0  0  0  0  0
   37.5140   36.0370   18.2340 C   0  0  0  0  0  0  0  0  0  0  0  0
   34.0160   39.1130   23.6660 C   0  0  0  0  0  0  0  0  0  0  0  0
   33.3300   38.9610   26.0850 C   0  0  0  0  0  0  0  0  0  0  0  0
   34.6170   37.9550   21.2370 C   0  0  0  0  0  0  0  0  0  0  0  0
   34.9880   37.3180   20.0040 C   0  0  0  0  0  0  0  0  0  0  0  0
   37.9640   36.6330   15.9560 C   0  0  0  0  0  0  0  0  0  0  0  0
   36.6300   36.3770   15.6270 C   0  0  0  0  0  0  0  0  0  0  0  0
   35.7180   35.9420   16.5970 C   0  0  0  0  0  0  0  0  0  0  0  0
   34.2600   37.1630   22.3690 C   0  0  0  0  0  0  0  0  0  0  0  0
   34.5940   39.3650   21.4060 C   0  0  0  0  0  0  0  0  0  0  0  0
   34.9680   35.9660   19.9350 C   0  0  0  0  0  0  0  0  0  0  0  0
   36.1700   35.7660   17.9050 C   0  0  0  0  0  0  0  0  0  0  0  0
   33.8300   34.9670   23.4660 C   0  0  0  0  0  0  0  0  0  0  0  0
   37.9030   35.8850   19.4960 F   0  0  0  0  0  0  0  0  0  0  0  0
   35.2950   35.1820   18.8310 O   0  0  0  0  0  0  0  0  0  0  0  0
   34.3070   39.9570   22.5750 N   0  0  0  0  0  0  0  0  0  0  0  0
   34.4210   33.8720   20.9770 O   0  0  0  0  0  0  0  0  0  0  0  0
   34.2120   35.7630   22.2670 N   0  0  0  0  0  0  0  0  0  0  0  0
   33.9530   37.7350   23.5780 N   0  0  0  0  0  0  0  0  0  0  0  0
   33.8360   39.7070   24.8940 N   0  0  0  0  0  0  0  0  0  0  0  0
   31.3220   38.5230   25.3110 H   0  0  0  0  0  0  0  0  0  0  0  0
   31.4800   40.1240   26.1410 H   0  0  0  0  0  0  0  0  0  0  0  0
   30.2360   38.6340   27.6750 H   0  0  0  0  0  0  0  0  0  0  0  0
   31.4950   37.3100   27.4740 H   0  0  0  0  0  0  0  0  0  0  0  0
   33.6920   37.8270   28.6400 H   0  0  0  0  0  0  0  0  0  0  0  0
   33.6930   39.4430   29.5230 H   0  0  0  0  0  0  0  0  0  0  0  0
   33.7630   40.6760   27.3820 H   0  0  0  0  0  0  0  0  0  0  0  0
   35.0770   39.4360   27.3230 H   0  0  0  0  0  0  0  0  0  0  0  0
   39.4630   36.6800   17.5230 H   0  0  0  0  0  0  0  0  0  0  0  0
   33.6390   37.8810   26.0020 H   0  0  0  0  0  0  0  0  0  0  0  0
   35.2870   37.9490   19.1650 H   0  0  0  0  0  0  0  0  0  0  0  0
   36.2800   36.5370   14.6060 H   0  0  0  0  0  0  0  0  0  0  0  0
   34.6740   35.7630   16.3270 H   0  0  0  0  0  0  0  0  0  0  0  0
   34.8100   40.0250   20.5490 H   0  0  0  0  0  0  0  0  0  0  0  0
   34.5070   35.2160   24.3290 H   0  0  0  0  0  0  0  0  0  0  0  0
   32.7740   35.2100   23.7670 H   0  0  0  0  0  0  0  0  0  0  0  0
   33.9060   33.8710   23.2470 H   0  0  0  0  0  0  0  0  0  0  0  0
   33.7740   40.7430   24.9600 H   0  0  0  0  0  0  0  0  0  0  0  0
   38.6480   36.9950   15.1890 H   0  0  0  0  0  0  0  0  0  0  0  0
  1  2  1  0  0  0  0
  1 10  1  0  0  0  0
  1 28  1  0  0  0  0
  1 29  1  0  0  0  0
  2  6  1  0  0  0  0
  2 30  1  0  0  0  0
  2 31  1  0  0  0  0
  3  4  1  0  0  0  0
  3  6  1  0  0  0  0
  3 32  1  0  0  0  0
  3 33  1  0  0  0  0
  4 10  1  0  0  0  0
  4 34  1  0  0  0  0
  4 35  1  0  0  0  0
  5  8  2  0  0  0  0
  5 13  1  0  0  0  0
  5 36  1  0  0  0  0
  7 18  1  0  0  0  0
  7 24  2  0  0  0  0
  7 25  1  0  0  0  0
  8 19  1  0  0  0  0
  8 21  1  0  0  0  0
  9 23  2  0  0  0  0
  9 26  1  0  0  0  0
  9 27  1  0  0  0  0
 10 27  1  0  0  0  0
 10 37  1  0  0  0  0
 11 12  1  0  0  0  0
 11 16  1  0  0  0  0
 11 17  2  0  0  0  0
 12 18  2  0  0  0  0
 12 38  1  0  0  0  0
 13 14  2  0  0  0  0
 13 46  1  0  0  0  0
 14 15  1  0  0  0  0
 14 39  1  0  0  0  0
 15 19  2  0  0  0  0
 15 40  1  0  0  0  0
 16 25  1  0  0  0  0
 16 26  2  0  0  0  0
 17 23  1  0  0  0  0
 17 41  1  0  0  0  0
 18 22  1  0  0  0  0
 19 22  1  0  0  0  0
 20 25  1  0  0  0  0
 20 42  1  0  0  0  0
 20 43  1  0  0  0  0
 20 44  1  0  0  0  0
 27 45  1  0  0  0  0
M  END
$$$$
