p38a_2x
 OpenBabel02232411163D
Structure written by MMmdl.
 43 46  0  0  1  0  0  0  0  0999 V2000
   38.2880   36.5410   17.1570 C   0  0  0  0  0  0  0  0  0  0  0  0
   34.4810   35.0920   21.1980 C   0  0  0  0  0  0  0  0  0  0  0  0
   37.5070   36.0790   18.2130 C   0  0  0  0  0  0  0  0  0  0  0  0
   33.8630   39.1880   23.6940 C   0  0  0  0  0  0  0  0  0  0  0  0
   34.6220   37.9650   21.3440 C   0  0  0  0  0  0  0  0  0  0  0  0
   35.0590   37.2980   20.1490 C   0  0  0  0  0  0  0  0  0  0  0  0
   37.6400   36.6990   15.9250 C   0  0  0  0  0  0  0  0  0  0  0  0
   36.2930   36.3930   15.7180 C   0  0  0  0  0  0  0  0  0  0  0  0
   35.5330   35.9160   16.7920 C   0  0  0  0  0  0  0  0  0  0  0  0
   34.1570   37.2090   22.4600 C   0  0  0  0  0  0  0  0  0  0  0  0
   34.6390   39.3780   21.4860 C   0  0  0  0  0  0  0  0  0  0  0  0
   35.0180   35.9470   20.1060 C   0  0  0  0  0  0  0  0  0  0  0  0
   36.1470   35.7490   18.0360 C   0  0  0  0  0  0  0  0  0  0  0  0
   33.5530   35.0450   23.5440 C   0  0  0  0  0  0  0  0  0  0  0  0
   38.0390   35.9470   19.4210 F   0  0  0  0  0  0  0  0  0  0  0  0
   35.4330   35.1190   19.0640 O   0  0  0  0  0  0  0  0  0  0  0  0
   34.2830   39.9990   22.6190 N   0  0  0  0  0  0  0  0  0  0  0  0
   34.3670   33.8860   21.1550 O   0  0  0  0  0  0  0  0  0  0  0  0
   34.0780   35.8100   22.3770 N   0  0  0  0  0  0  0  0  0  0  0  0
   33.7780   37.8150   23.6360 N   0  0  0  0  0  0  0  0  0  0  0  0
   33.5790   39.8580   24.8680 N   0  0  0  0  0  0  0  0  0  0  0  0
   39.3410   36.8060   17.2920 H   0  0  0  0  0  0  0  0  0  0  0  0
   35.4190   37.9100   19.3190 H   0  0  0  0  0  0  0  0  0  0  0  0
   35.8210   36.5370   14.7440 H   0  0  0  0  0  0  0  0  0  0  0  0
   34.4700   35.6940   16.6510 H   0  0  0  0  0  0  0  0  0  0  0  0
   34.9440   40.0120   20.6380 H   0  0  0  0  0  0  0  0  0  0  0  0
   34.1980   35.2310   24.4450 H   0  0  0  0  0  0  0  0  0  0  0  0
   32.5070   35.3810   23.7760 H   0  0  0  0  0  0  0  0  0  0  0  0
   33.5440   33.9470   23.3170 H   0  0  0  0  0  0  0  0  0  0  0  0
   33.6430   40.8980   24.8610 H   0  0  0  0  0  0  0  0  0  0  0  0
   38.3350   37.2040   14.9090 F   0  0  0  0  0  0  0  0  0  0  0  0
   32.5280   37.4490   27.4550 O   0  0  0  0  0  0  0  0  0  0  0  0
   31.3350   37.4670   26.6170 C   0  0  0  0  0  0  0  0  0  0  0  0
   31.4510   38.6530   25.6470 C   0  0  0  0  0  0  0  0  0  0  0  0
   32.7900   39.3370   26.0100 C   0  0  1  0  0  0  0  0  0  0  0  0
   33.5510   38.2740   26.8470 C   0  0  0  0  0  0  0  0  0  0  0  0
   30.4940   37.5800   27.3360 H   0  0  0  0  0  0  0  0  0  0  0  0
   31.2970   36.4920   26.0850 H   0  0  0  0  0  0  0  0  0  0  0  0
   31.4450   38.2910   24.5940 H   0  0  0  0  0  0  0  0  0  0  0  0
   30.6040   39.3610   25.7650 H   0  0  0  0  0  0  0  0  0  0  0  0
   32.5850   40.2430   26.6530 H   0  0  0  0  0  0  0  0  0  0  0  0
   34.1040   38.7200   27.7020 H   0  0  0  0  0  0  0  0  0  0  0  0
   34.1960   37.6200   26.2210 H   0  0  0  0  0  0  0  0  0  0  0  0
  1  3  2  0  0  0  0
  1  7  1  0  0  0  0
  1 22  1  0  0  0  0
  2 12  1  0  0  0  0
  2 18  2  0  0  0  0
  2 19  1  0  0  0  0
  3 13  1  0  0  0  0
  3 15  1  0  0  0  0
  4 17  2  0  0  0  0
  4 20  1  0  0  0  0
  4 21  1  0  0  0  0
  5  6  1  0  0  0  0
  5 10  1  0  0  0  0
  5 11  2  0  0  0  0
  6 12  2  0  0  0  0
  6 23  1  0  0  0  0
  7  8  2  0  0  0  0
  7 31  1  0  0  0  0
  8  9  1  0  0  0  0
  8 24  1  0  0  0  0
  9 13  2  0  0  0  0
  9 25  1  0  0  0  0
 10 19  1  0  0  0  0
 10 20  2  0  0  0  0
 11 17  1  0  0  0  0
 11 26  1  0  0  0  0
 12 16  1  0  0  0  0
 13 16  1  0  0  0  0
 14 19  1  0  0  0  0
 14 27  1  0  0  0  0
 14 28  1  0  0  0  0
 14 29  1  0  0  0  0
 21 30  1  0  0  0  0
 21 35  1  0  0  0  0
 32 33  1  0  0  0  0
 32 36  1  0  0  0  0
 33 34  1  0  0  0  0
 33 37  1  0  0  0  0
 33 38  1  0  0  0  0
 34 35  1  0  0  0  0
 34 39  1  0  0  0  0
 34 40  1  0  0  0  0
 35 36  1  0  0  0  0
 35 41  1  1  0  0  0
 36 42  1  0  0  0  0
 36 43  1  0  0  0  0
M  END
$$$$
