p38a_2aa
 OpenBabel02232411163D
Structure written by MMmdl.
 43 45  0  0  0  0  0  0  0  0999 V2000
   36.4100   36.1690   15.6240 C   0  0  0  0  0  0  0  0  0  0  0  0
   34.6440   34.9320   21.1170 C   0  0  0  0  0  0  0  0  0  0  0  0
   35.7690   35.6350   16.7370 C   0  0  0  0  0  0  0  0  0  0  0  0
   34.0710   38.9610   23.7240 C   0  0  0  0  0  0  0  0  0  0  0  0
   33.4370   38.8050   26.1540 C   0  0  0  0  0  0  0  0  0  0  0  0
   34.8060   37.8000   21.3400 C   0  0  0  0  0  0  0  0  0  0  0  0
   35.2670   37.1590   20.1370 C   0  0  0  0  0  0  0  0  0  0  0  0
   37.7000   36.6740   15.8280 C   0  0  0  0  0  0  0  0  0  0  0  0
   38.3540   36.6430   17.0630 C   0  0  0  0  0  0  0  0  0  0  0  0
   37.6720   36.1420   18.1770 C   0  0  0  0  0  0  0  0  0  0  0  0
   34.4050   37.0090   22.4580 C   0  0  0  0  0  0  0  0  0  0  0  0
   34.7570   39.2100   21.4990 C   0  0  0  0  0  0  0  0  0  0  0  0
   35.2230   35.8080   20.0620 C   0  0  0  0  0  0  0  0  0  0  0  0
   36.3800   35.6390   18.0080 C   0  0  0  0  0  0  0  0  0  0  0  0
   33.9450   34.8100   23.5410 C   0  0  0  0  0  0  0  0  0  0  0  0
   34.5610   35.0990   16.6290 F   0  0  0  0  0  0  0  0  0  0  0  0
   35.6650   34.9920   19.0250 O   0  0  0  0  0  0  0  0  0  0  0  0
   34.4030   39.8060   22.6500 N   0  0  0  0  0  0  0  0  0  0  0  0
   34.4280   33.7460   21.0040 O   0  0  0  0  0  0  0  0  0  0  0  0
   34.3410   35.6110   22.3490 N   0  0  0  0  0  0  0  0  0  0  0  0
   34.0620   37.5820   23.6570 N   0  0  0  0  0  0  0  0  0  0  0  0
   33.6900   39.5670   24.9010 N   0  0  0  0  0  0  0  0  0  0  0  0
   35.9230   36.2140   14.6490 H   0  0  0  0  0  0  0  0  0  0  0  0
   34.7000   38.8710   27.0550 C   0  0  0  0  0  0  0  0  0  0  0  0
   35.6550   37.7900   19.3360 H   0  0  0  0  0  0  0  0  0  0  0  0
   39.3680   37.0350   17.1750 H   0  0  0  0  0  0  0  0  0  0  0  0
   38.1450   36.1770   19.1620 H   0  0  0  0  0  0  0  0  0  0  0  0
   35.0130   39.8700   20.6530 H   0  0  0  0  0  0  0  0  0  0  0  0
   34.6730   34.9910   24.3780 H   0  0  0  0  0  0  0  0  0  0  0  0
   32.9210   35.1140   23.8920 H   0  0  0  0  0  0  0  0  0  0  0  0
   33.9360   33.7170   23.2920 H   0  0  0  0  0  0  0  0  0  0  0  0
   33.7420   40.5960   24.9890 H   0  0  0  0  0  0  0  0  0  0  0  0
   38.3140   37.2460   14.7940 F   0  0  0  0  0  0  0  0  0  0  0  0
   32.1870   39.3930   26.8550 C   0  0  0  0  0  0  0  0  0  0  0  0
   32.4770   40.6200   27.5350 O   0  0  0  0  0  0  0  0  0  0  0  0
   32.7290   41.3100   26.8480 H   0  0  0  0  0  0  0  0  0  0  0  0
   31.3650   39.5650   26.1210 H   0  0  0  0  0  0  0  0  0  0  0  0
   31.8640   38.7120   27.6800 H   0  0  0  0  0  0  0  0  0  0  0  0
   34.5980   37.9370   28.1350 O   0  0  0  0  0  0  0  0  0  0  0  0
   35.6160   38.6560   26.4590 H   0  0  0  0  0  0  0  0  0  0  0  0
   34.7660   39.8570   27.5760 H   0  0  0  0  0  0  0  0  0  0  0  0
   34.6250   37.0110   27.7740 H   0  0  0  0  0  0  0  0  0  0  0  0
   33.2080   37.7270   25.9040 H   0  0  0  0  0  0  0  0  0  0  0  0
  1  3  2  0  0  0  0
  1  8  1  0  0  0  0
  1 23  1  0  0  0  0
  2 13  1  0  0  0  0
  2 19  2  0  0  0  0
  2 20  1  0  0  0  0
  3 14  1  0  0  0  0
  3 16  1  0  0  0  0
  4 18  2  0  0  0  0
  4 21  1  0  0  0  0
  4 22  1  0  0  0  0
  5 22  1  0  0  0  0
  5 24  1  0  0  0  0
  5 34  1  0  0  0  0
  5 43  1  0  0  0  0
  6  7  1  0  0  0  0
  6 11  1  0  0  0  0
  6 12  2  0  0  0  0
  7 13  2  0  0  0  0
  7 25  1  0  0  0  0
  8  9  2  0  0  0  0
  8 33  1  0  0  0  0
  9 10  1  0  0  0  0
  9 26  1  0  0  0  0
 10 14  2  0  0  0  0
 10 27  1  0  0  0  0
 11 20  1  0  0  0  0
 11 21  2  0  0  0  0
 12 18  1  0  0  0  0
 12 28  1  0  0  0  0
 13 17  1  0  0  0  0
 14 17  1  0  0  0  0
 15 20  1  0  0  0  0
 15 29  1  0  0  0  0
 15 30  1  0  0  0  0
 15 31  1  0  0  0  0
 22 32  1  0  0  0  0
 24 39  1  0  0  0  0
 24 40  1  0  0  0  0
 24 41  1  0  0  0  0
 34 35  1  0  0  0  0
 34 37  1  0  0  0  0
 34 38  1  0  0  0  0
 35 36  1  0  0  0  0
 39 42  1  0  0  0  0
M  END
$$$$
