45
 OpenBabel02232411163D
Structure written by MMmdl.
 48 51  0  0  0  0  0  0  0  0999 V2000
    3.5110  -49.7720    5.7940 O   0  0  0  0  0  0  0  0  0  0  0  0
    2.7950  -48.9510    6.4020 C   0  0  0  0  0  0  0  0  0  0  0  0
    3.1810  -47.9530    7.0240 O   0  5  0  0  0  0  0  0  0  0  0  0
    1.2900  -49.2930    6.3760 C   0  0  0  0  0  0  0  0  0  0  0  0
   -0.4860  -50.7310    6.5740 C   0  0  0  0  0  0  0  0  0  0  0  0
   -1.3380  -51.8270    6.7960 C   0  0  0  0  0  0  0  0  0  0  0  0
   -2.6890  -51.6480    6.5410 C   0  0  0  0  0  0  0  0  0  0  0  0
   -3.1910  -50.4090    6.0760 C   0  0  0  0  0  0  0  0  0  0  0  0
   -2.3560  -49.3210    5.8610 C   0  0  0  0  0  0  0  0  0  0  0  0
   -0.9800  -49.4590    6.1090 C   0  0  0  0  0  0  0  0  0  0  0  0
    0.1600  -48.5710    6.0070 C   0  0  0  0  0  0  0  0  0  0  0  0
    0.0460  -47.1590    5.5560 C   0  0  0  0  0  0  0  0  0  0  0  0
    0.0040  -46.1390    6.7070 C   0  0  0  0  0  0  0  0  0  0  0  0
   -1.1890  -46.2680    7.6490 C   0  0  0  0  0  0  0  0  0  0  0  0
   -2.3480  -45.6650    6.9600 O   0  0  0  0  0  0  0  0  0  0  0  0
   -3.5520  -45.7010    7.6150 C   0  0  0  0  0  0  0  0  0  0  0  0
   -6.1050  -45.6880    8.7410 C   0  0  0  0  0  0  0  0  0  0  0  0
   -5.0560  -46.3200    9.3980 C   0  0  0  0  0  0  0  0  0  0  0  0
   -3.7730  -46.3460    8.8400 C   0  0  0  0  0  0  0  0  0  0  0  0
   -0.9580  -52.7830    7.1570 H   0  0  0  0  0  0  0  0  0  0  0  0
   -3.3880  -52.4700    6.7010 H   0  0  0  0  0  0  0  0  0  0  0  0
   -4.2610  -50.3170    5.8850 H   0  0  0  0  0  0  0  0  0  0  0  0
   -2.7700  -48.3750    5.5100 H   0  0  0  0  0  0  0  0  0  0  0  0
   -0.8980  -47.0480    4.9600 H   0  0  0  0  0  0  0  0  0  0  0  0
    0.9090  -46.8930    4.9000 H   0  0  0  0  0  0  0  0  0  0  0  0
   -0.0010  -45.1140    6.2730 H   0  0  0  0  0  0  0  0  0  0  0  0
    0.9240  -46.2650    7.3330 H   0  0  0  0  0  0  0  0  0  0  0  0
   -1.0390  -45.6550    8.5650 H   0  0  0  0  0  0  0  0  0  0  0  0
   -1.4480  -47.3270    7.8570 H   0  0  0  0  0  0  0  0  0  0  0  0
   -2.9870  -46.8680    9.3760 H   0  0  0  0  0  0  0  0  0  0  0  0
   -5.8920  -45.0770    7.4890 C   0  0  0  0  0  0  0  0  0  0  0  0
   -4.6080  -45.0260    6.9370 C   0  0  0  0  0  0  0  0  0  0  0  0
   -4.3200  -44.3360    5.6350 C   0  0  0  0  0  0  0  0  0  0  0  0
   -5.5250  -43.5890    5.0420 C   0  0  0  0  0  0  0  0  0  0  0  0
   -6.8310  -44.3590    5.2540 C   0  0  0  0  0  0  0  0  0  0  0  0
   -7.0910  -44.5270    6.7590 C   0  0  0  0  0  0  0  0  0  0  0  0
   -5.2430  -46.8160   10.3510 H   0  0  0  0  0  0  0  0  0  0  0  0
   -7.1000  -45.6780    9.1790 H   0  0  0  0  0  0  0  0  0  0  0  0
   -3.9630  -45.0960    4.8980 H   0  0  0  0  0  0  0  0  0  0  0  0
   -3.5070  -43.5900    5.7900 H   0  0  0  0  0  0  0  0  0  0  0  0
   -5.6220  -42.6000    5.5390 H   0  0  0  0  0  0  0  0  0  0  0  0
   -5.3390  -43.4250    3.9590 H   0  0  0  0  0  0  0  0  0  0  0  0
   -6.7660  -45.3610    4.7720 H   0  0  0  0  0  0  0  0  0  0  0  0
   -7.6820  -43.8130    4.7940 H   0  0  0  0  0  0  0  0  0  0  0  0
   -7.3650  -43.5410    7.2030 H   0  0  0  0  0  0  0  0  0  0  0  0
   -7.9560  -45.2230    6.8960 H   0  0  0  0  0  0  0  0  0  0  0  0
    0.9020  -50.6010    6.7380 N   0  0  0  0  0  0  0  0  0  0  0  0
    1.5030  -51.3630    7.0300 H   0  0  0  0  0  0  0  0  0  0  0  0
  1  2  2  0  0  0  0
  2  3  1  0  0  0  0
  2  4  1  0  0  0  0
  4 11  2  0  0  0  0
  4 47  1  0  0  0  0
  5  6  2  0  0  0  0
  5 10  1  0  0  0  0
  5 47  1  0  0  0  0
  6  7  1  0  0  0  0
  6 20  1  0  0  0  0
  7  8  2  0  0  0  0
  7 21  1  0  0  0  0
  8  9  1  0  0  0  0
  8 22  1  0  0  0  0
  9 10  2  0  0  0  0
  9 23  1  0  0  0  0
 10 11  1  0  0  0  0
 11 12  1  0  0  0  0
 12 24  1  0  0  0  0
 12 25  1  0  0  0  0
 12 13  1  0  0  0  0
 13 14  1  0  0  0  0
 13 26  1  0  0  0  0
 13 27  1  0  0  0  0
 14 15  1  0  0  0  0
 14 28  1  0  0  0  0
 14 29  1  0  0  0  0
 15 16  1  0  0  0  0
 16 19  2  0  0  0  0
 16 32  1  0  0  0  0
 17 18  2  0  0  0  0
 17 31  1  0  0  0  0
 17 38  1  0  0  0  0
 18 19  1  0  0  0  0
 18 37  1  0  0  0  0
 19 30  1  0  0  0  0
 31 32  2  0  0  0  0
 31 36  1  0  0  0  0
 32 33  1  0  0  0  0
 33 34  1  0  0  0  0
 33 39  1  0  0  0  0
 33 40  1  0  0  0  0
 34 35  1  0  0  0  0
 34 41  1  0  0  0  0
 34 42  1  0  0  0  0
 35 36  1  0  0  0  0
 35 43  1  0  0  0  0
 35 44  1  0  0  0  0
 36 45  1  0  0  0  0
 36 46  1  0  0  0  0
 47 48  1  0  0  0  0
M  CHG  1   3  -1
M  END
$$$$
