26.pdb
 OpenBabel02232411163D

 43 46  0  0  0  0  0  0  0  0999 V2000
    3.5490  -50.0690    6.0020 O   0  5  0  0  0  0  0  0  0  0  0  0
    2.8960  -49.1340    6.4870 C   0  0  0  0  0  0  0  0  0  0  0  0
    3.3100  -48.1280    7.0740 O   0  0  0  0  0  0  0  0  0  0  0  0
    1.3580  -49.3100    6.3600 C   0  0  0  0  0  0  0  0  0  0  0  0
    0.9840  -50.6280    6.7090 O   0  0  0  0  0  0  0  0  0  0  0  0
   -0.4020  -50.6930    6.5470 C   0  0  0  0  0  0  0  0  0  0  0  0
   -1.2140  -51.7950    6.7970 C   0  0  0  0  0  0  0  0  0  0  0  0
   -0.8350  -52.7500    7.1590 H   0  0  0  0  0  0  0  0  0  0  0  0
   -2.5800  -51.6160    6.5610 C   0  0  0  0  0  0  0  0  0  0  0  0
   -3.2720  -52.4400    6.7450 H   0  0  0  0  0  0  0  0  0  0  0  0
   -3.0910  -50.3900    6.0950 C   0  0  0  0  0  0  0  0  0  0  0  0
   -4.1650  -50.2960    5.9210 H   0  0  0  0  0  0  0  0  0  0  0  0
   -2.2620  -49.2930    5.8530 C   0  0  0  0  0  0  0  0  0  0  0  0
   -2.6870  -48.3540    5.4980 H   0  0  0  0  0  0  0  0  0  0  0  0
   -0.8910  -49.4330    6.0830 C   0  0  0  0  0  0  0  0  0  0  0  0
    0.2730  -48.5620    5.9830 C   0  0  0  0  0  0  0  0  0  0  0  0
    0.1990  -47.1470    5.5360 C   0  0  0  0  0  0  0  0  0  0  0  0
    1.0740  -46.9000    4.8860 H   0  0  0  0  0  0  0  0  0  0  0  0
   -0.7400  -47.0160    4.9370 H   0  0  0  0  0  0  0  0  0  0  0  0
    0.1750  -46.1410    6.7000 C   0  0  0  0  0  0  0  0  0  0  0  0
    0.1580  -45.1060    6.2830 H   0  0  0  0  0  0  0  0  0  0  0  0
    1.1040  -46.2740    7.3110 H   0  0  0  0  0  0  0  0  0  0  0  0
   -1.0120  -46.2950    7.6440 C   0  0  0  0  0  0  0  0  0  0  0  0
   -0.8900  -45.6710    8.5570 H   0  0  0  0  0  0  0  0  0  0  0  0
   -1.2540  -47.3580    7.8540 H   0  0  0  0  0  0  0  0  0  0  0  0
   -2.1710  -45.7250    6.9270 O   0  0  0  0  0  0  0  0  0  0  0  0
   -3.3740  -45.7360    7.5700 C   0  0  0  0  0  0  0  0  0  0  0  0
   -4.3930  -44.9950    6.8570 C   0  0  0  0  0  0  0  0  0  0  0  0
   -5.6890  -44.9100    7.4320 C   0  0  0  0  0  0  0  0  0  0  0  0
   -5.9470  -45.5400    8.6890 C   0  0  0  0  0  0  0  0  0  0  0  0
   -6.9420  -45.4560    9.1240 H   0  0  0  0  0  0  0  0  0  0  0  0
   -4.9620  -46.2630    9.3140 C   0  0  0  0  0  0  0  0  0  0  0  0
   -5.1760  -46.7800   10.2520 H   0  0  0  0  0  0  0  0  0  0  0  0
   -3.6570  -46.3690    8.7660 C   0  0  0  0  0  0  0  0  0  0  0  0
   -2.9280  -46.9580    9.3130 H   0  0  0  0  0  0  0  0  0  0  0  0
   -6.7160  -44.2300    6.7060 C   0  0  0  0  0  0  0  0  0  0  0  0
   -7.7170  -44.1840    7.1320 H   0  0  0  0  0  0  0  0  0  0  0  0
   -6.4490  -43.6620    5.4840 C   0  0  0  0  0  0  0  0  0  0  0  0
   -7.2330  -43.1570    4.9250 H   0  0  0  0  0  0  0  0  0  0  0  0
   -5.1470  -43.7350    4.9210 C   0  0  0  0  0  0  0  0  0  0  0  0
   -4.9570  -43.2670    3.9580 H   0  0  0  0  0  0  0  0  0  0  0  0
   -4.1460  -44.4010    5.5870 C   0  0  0  0  0  0  0  0  0  0  0  0
   -3.1560  -44.5070    5.1420 H   0  0  0  0  0  0  0  0  0  0  0  0
  1  2  1  0  0  0  0
  2  3  2  0  0  0  0
  4  2  1  0  0  0  0
  4  5  1  0  0  0  0
  6  7  1  0  0  0  0
  6  5  1  0  0  0  0
  7  8  1  0  0  0  0
  9 10  1  0  0  0  0
  9  7  2  0  0  0  0
 11  9  1  0  0  0  0
 12 11  1  0  0  0  0
 13 11  2  0  0  0  0
 13 15  1  0  0  0  0
 14 13  1  0  0  0  0
 15  6  2  0  0  0  0
 16 15  1  0  0  0  0
 16  4  2  0  0  0  0
 17 16  1  0  0  0  0
 17 20  1  0  0  0  0
 18 17  1  0  0  0  0
 19 17  1  0  0  0  0
 20 22  1  0  0  0  0
 20 23  1  0  0  0  0
 21 20  1  0  0  0  0
 23 25  1  0  0  0  0
 23 24  1  0  0  0  0
 26 23  1  0  0  0  0
 26 27  1  0  0  0  0
 27 34  1  0  0  0  0
 28 27  2  0  0  0  0
 28 29  1  0  0  0  0
 29 30  2  0  0  0  0
 30 32  1  0  0  0  0
 30 31  1  0  0  0  0
 32 33  1  0  0  0  0
 34 35  1  0  0  0  0
 34 32  2  0  0  0  0
 36 29  1  0  0  0  0
 36 37  1  0  0  0  0
 38 36  2  0  0  0  0
 39 38  1  0  0  0  0
 40 42  2  0  0  0  0
 40 38  1  0  0  0  0
 41 40  1  0  0  0  0
 42 28  1  0  0  0  0
 43 42  1  0  0  0  0
M  CHG  1   1  -1
M  END
$$$$
