18639-1
 OpenBabel02232411163D
Structure written by MMmdl.
 48 49  0  0  0  0  0  0  0  0999 V2000
   23.2150   10.7820   29.0670 C   0  0  0  0  0  0  0  0  0  0  0  0
   23.4870   11.0360   30.5350 C   0  0  0  0  0  0  0  0  0  0  0  0
   22.2200   11.1510   31.2880 O   0  0  0  0  0  0  0  0  0  0  0  0
   21.5580   10.0250   31.6350 C   0  0  0  0  0  0  0  0  0  0  0  0
   22.0270    8.8250   31.2210 N   0  0  0  0  0  0  0  0  0  0  0  0
   21.2800    7.7020   31.5360 C   0  0  0  0  0  0  0  0  0  0  0  0
   20.1110    7.7600   32.2860 C   0  0  0  0  0  0  0  0  0  0  0  0
   19.6410    9.0210   32.7430 C   0  0  0  0  0  0  0  0  0  0  0  0
   18.4860    9.0820   33.4790 N   0  0  0  0  0  0  0  0  0  0  0  0
   20.3730   10.2060   32.4090 C   0  0  0  0  0  0  0  0  0  0  0  0
   19.9780   11.5130   32.7650 C   0  0  0  0  0  0  0  0  0  0  0  0
   19.7030   12.6110   33.0180 N   0  0  0  0  0  0  0  0  0  0  0  0
   21.8560    6.5320   30.9880 N   0  0  0  0  0  0  0  0  0  0  0  0
   21.2480    5.2650   30.8830 C   0  0  0  0  0  0  0  0  0  0  0  0
   20.1490    5.0210   31.3340 O   0  0  0  0  0  0  0  0  0  0  0  0
   22.0710    4.2640   30.0800 C   0  0  0  0  0  0  0  0  0  0  0  0
   23.4390    3.9930   30.6350 C   0  0  0  0  0  0  0  0  0  0  0  0
   24.5350    4.8530   30.3140 C   0  0  0  0  0  0  0  0  0  0  0  0
   24.1770    5.8990   29.4720 O   0  0  0  0  0  0  0  0  0  0  0  0
   25.1310    6.9860   29.3060 C   0  0  0  0  0  0  0  0  0  0  0  0
   25.8150    4.6140   30.7890 C   0  0  0  0  0  0  0  0  0  0  0  0
   26.0460    3.5000   31.6240 C   0  0  0  0  0  0  0  0  0  0  0  0
   27.3980    3.2460   32.1280 N   0  3  0  0  0  0  0  0  0  0  0  0
   27.5310    2.4620   33.0560 O   0  5  0  0  0  0  0  0  0  0  0  0
   28.3390    3.8230   31.5970 O   0  0  0  0  0  0  0  0  0  0  0  0
   24.9740    2.6350   31.9460 C   0  0  0  0  0  0  0  0  0  0  0  0
   23.6790    2.8880   31.4350 C   0  0  0  0  0  0  0  0  0  0  0  0
   25.3220    1.5990   32.7600 O   0  0  0  0  0  0  0  0  0  0  0  0
   24.3240    0.5620   33.0020 C   0  0  0  0  0  0  0  0  0  0  0  0
   24.1780   10.8320   28.5010 H   0  0  0  0  0  0  0  0  0  0  0  0
   22.5250   11.5450   28.6440 H   0  0  0  0  0  0  0  0  0  0  0  0
   22.7710    9.7710   28.9080 H   0  0  0  0  0  0  0  0  0  0  0  0
   23.8970   12.0580   30.7170 H   0  0  0  0  0  0  0  0  0  0  0  0
   24.1190   10.2400   30.9900 H   0  0  0  0  0  0  0  0  0  0  0  0
   19.5410    6.8570   32.5130 H   0  0  0  0  0  0  0  0  0  0  0  0
   17.9810    8.2160   33.7490 H   0  0  0  0  0  0  0  0  0  0  0  0
   18.0950    9.9730   33.7830 H   0  0  0  0  0  0  0  0  0  0  0  0
   22.7800    6.6770   30.5090 H   0  0  0  0  0  0  0  0  0  0  0  0
   21.4960    3.3020   30.0190 H   0  0  0  0  0  0  0  0  0  0  0  0
   22.1800    4.6790   29.0380 H   0  0  0  0  0  0  0  0  0  0  0  0
   25.4480    7.3830   30.2940 H   0  0  0  0  0  0  0  0  0  0  0  0
   25.9860    6.6300   28.6930 H   0  0  0  0  0  0  0  0  0  0  0  0
   24.5140    7.7320   28.7540 H   0  0  0  0  0  0  0  0  0  0  0  0
   26.6540    5.2660   30.5200 H   0  0  0  0  0  0  0  0  0  0  0  0
   22.8640    2.1990   31.6700 H   0  0  0  0  0  0  0  0  0  0  0  0
   24.9100   -0.1700   33.6080 H   0  0  0  0  0  0  0  0  0  0  0  0
   23.4770    0.9770   33.5880 H   0  0  0  0  0  0  0  0  0  0  0  0
   23.9990    0.1130   32.0390 H   0  0  0  0  0  0  0  0  0  0  0  0
  1  2  1  0  0  0  0
  1 30  1  0  0  0  0
  1 31  1  0  0  0  0
  1 32  1  0  0  0  0
  2  3  1  0  0  0  0
  2 33  1  0  0  0  0
  2 34  1  0  0  0  0
  3  4  1  0  0  0  0
  4 10  2  0  0  0  0
  4  5  1  0  0  0  0
  5  6  2  0  0  0  0
  6  7  1  0  0  0  0
  6 13  1  0  0  0  0
  7  8  2  0  0  0  0
  7 35  1  0  0  0  0
  8  9  1  0  0  0  0
  8 10  1  0  0  0  0
  9 36  1  0  0  0  0
  9 37  1  0  0  0  0
 10 11  1  0  0  0  0
 11 12  3  0  0  0  0
 13 14  1  0  0  0  0
 13 38  1  0  0  0  0
 14 15  2  0  0  0  0
 14 16  1  0  0  0  0
 16 17  1  0  0  0  0
 16 39  1  0  0  0  0
 16 40  1  0  0  0  0
 17 27  2  0  0  0  0
 17 18  1  0  0  0  0
 18 19  1  0  0  0  0
 18 21  2  0  0  0  0
 19 20  1  0  0  0  0
 20 41  1  0  0  0  0
 20 42  1  0  0  0  0
 20 43  1  0  0  0  0
 21 22  1  0  0  0  0
 21 44  1  0  0  0  0
 22 23  1  0  0  0  0
 22 26  2  0  0  0  0
 23 24  1  0  0  0  0
 23 25  2  0  0  0  0
 26 27  1  0  0  0  0
 26 28  1  0  0  0  0
 27 45  1  0  0  0  0
 28 29  1  0  0  0  0
 29 46  1  0  0  0  0
 29 47  1  0  0  0  0
 29 48  1  0  0  0  0
M  CHG  2  23   1  24  -1
M  END
$$$$
