CAT-13e
 OpenBabel02232411143D
Structure written by MMmdl.
 46 49  0  0  1  0  0  0  0  0999 V2000
   11.6740   -2.1950    1.1650 C   0  0  0  0  0  0  0  0  0  0  0  0
   12.9940   -2.2530    0.5040 N   0  0  0  0  0  0  0  0  0  0  0  0
   14.2060   -2.2240    1.1910 C   0  0  0  0  0  0  0  0  0  0  0  0
   14.3680   -2.3220    2.5420 N   0  0  0  0  0  0  0  0  0  0  0  0
   15.2710   -2.1410    0.2780 N   0  3  0  0  0  0  0  0  0  0  0  0
   14.7740   -2.4320   -1.1260 C   0  0  1  0  0  0  0  0  0  0  0  0
   15.2370   -1.3500   -2.0890 C   0  0  0  0  0  0  0  0  0  0  0  0
   15.7100   -1.6430   -3.3750 C   0  0  0  0  0  0  0  0  0  0  0  0
   16.1110   -0.6010   -4.2180 C   0  0  0  0  0  0  0  0  0  0  0  0
   16.0230    0.7310   -3.8090 C   0  0  0  0  0  0  0  0  0  0  0  0
   15.5240    1.0410   -2.5330 C   0  0  0  0  0  0  0  0  0  0  0  0
   15.3440    2.4340   -2.0650 C   0  0  0  0  0  0  0  0  0  0  0  0
   14.8990    3.4400   -2.9380 C   0  0  0  0  0  0  0  0  0  0  0  0
   14.6090    4.7200   -2.4520 C   0  0  0  0  0  0  0  0  0  0  0  0
   14.7400    5.0110   -1.0910 C   0  0  0  0  0  0  0  0  0  0  0  0
   15.1910    4.0040   -0.2350 C   0  0  0  0  0  0  0  0  0  0  0  0
   15.2580    4.2910    1.4660 Cl  0  0  0  0  0  0  0  0  0  0  0  0
   15.5340    2.7370   -0.7040 C   0  0  0  0  0  0  0  0  0  0  0  0
   15.1370   -0.0110   -1.6870 C   0  0  0  0  0  0  0  0  0  0  0  0
   15.1060   -3.8670   -1.5590 C   0  0  0  0  0  0  0  0  0  0  0  0
   16.6240   -4.1320   -1.7300 C   0  0  0  0  0  0  0  0  0  0  0  0
   16.5590   -5.1930   -0.6110 C   0  0  0  0  0  0  0  0  0  0  0  0
   15.0370   -4.9680   -0.4610 C   0  0  0  0  0  0  0  0  0  0  0  0
   13.2260   -2.3240   -0.9520 C   0  0  0  0  0  0  0  0  0  0  0  0
   12.3310   -2.2930   -1.7350 O   0  0  0  0  0  0  0  0  0  0  0  0
   10.9410   -2.8120    0.5770 H   0  0  0  0  0  0  0  0  0  0  0  0
   11.3280   -1.1300    1.2080 H   0  0  0  0  0  0  0  0  0  0  0  0
   11.7350   -2.6130    2.2050 H   0  0  0  0  0  0  0  0  0  0  0  0
   13.6480   -1.9650    3.2180 H   0  0  0  0  0  0  0  0  0  0  0  0
   16.2050   -2.5120    0.6060 H   0  0  0  0  0  0  0  0  0  0  0  0
   15.7750   -2.6700   -3.7360 H   0  0  0  0  0  0  0  0  0  0  0  0
   16.5050   -0.8380   -5.2130 H   0  0  0  0  0  0  0  0  0  0  0  0
   16.3460    1.5220   -4.4930 H   0  0  0  0  0  0  0  0  0  0  0  0
   14.7530    3.2230   -4.0010 H   0  0  0  0  0  0  0  0  0  0  0  0
   14.2470    5.4880   -3.1460 H   0  0  0  0  0  0  0  0  0  0  0  0
   14.4770    5.9960   -0.7050 H   0  0  0  0  0  0  0  0  0  0  0  0
   15.9230    1.9790   -0.0220 H   0  0  0  0  0  0  0  0  0  0  0  0
   14.7520    0.2040   -0.6950 H   0  0  0  0  0  0  0  0  0  0  0  0
   14.5090   -4.1380   -2.4550 H   0  0  0  0  0  0  0  0  0  0  0  0
   17.2650   -3.2670   -1.4710 H   0  0  0  0  0  0  0  0  0  0  0  0
   16.8980   -4.5300   -2.7150 H   0  0  0  0  0  0  0  0  0  0  0  0
   16.8460   -6.2130   -0.8890 H   0  0  0  0  0  0  0  0  0  0  0  0
   17.1410   -4.8550    0.2530 H   0  0  0  0  0  0  0  0  0  0  0  0
   14.7340   -4.6390    0.5460 H   0  0  0  0  0  0  0  0  0  0  0  0
   14.4160   -5.8310   -0.7600 H   0  0  0  0  0  0  0  0  0  0  0  0
   15.3460   -2.3060    2.9430 H   0  0  0  0  0  0  0  0  0  0  0  0
  1  2  1  0  0  0  0
  1 26  1  0  0  0  0
  1 27  1  0  0  0  0
  1 28  1  0  0  0  0
  2  3  1  0  0  0  0
  2 24  1  0  0  0  0
  3  4  1  0  0  0  0
  3  5  2  0  0  0  0
  4 29  1  0  0  0  0
  4 46  1  0  0  0  0
  5  6  1  0  0  0  0
  5 30  1  0  0  0  0
  6  7  1  6  0  0  0
  6 20  1  0  0  0  0
  6 24  1  0  0  0  0
  7  8  2  0  0  0  0
  7 19  1  0  0  0  0
  8  9  1  0  0  0  0
  8 31  1  0  0  0  0
  9 10  2  0  0  0  0
  9 32  1  0  0  0  0
 10 11  1  0  0  0  0
 10 33  1  0  0  0  0
 11 12  1  0  0  0  0
 11 19  2  0  0  0  0
 12 13  2  0  0  0  0
 12 18  1  0  0  0  0
 13 14  1  0  0  0  0
 13 34  1  0  0  0  0
 14 15  2  0  0  0  0
 14 35  1  0  0  0  0
 15 16  1  0  0  0  0
 15 36  1  0  0  0  0
 16 17  1  0  0  0  0
 16 18  2  0  0  0  0
 18 37  1  0  0  0  0
 19 38  1  0  0  0  0
 20 21  1  0  0  0  0
 20 23  1  0  0  0  0
 20 39  1  0  0  0  0
 21 22  1  0  0  0  0
 21 40  1  0  0  0  0
 21 41  1  0  0  0  0
 22 23  1  0  0  0  0
 22 42  1  0  0  0  0
 22 43  1  0  0  0  0
 23 44  1  0  0  0  0
 23 45  1  0  0  0  0
 24 25  2  0  0  0  0
M  CHG  1   5   1
M  END
$$$$
