CAT-24
                    3D
 Schrodinger Suite 2022-3.
 47 50  0  0  1  0  0  0  0  0999 V2000
   15.5470    5.1550    2.5970 C   0  0  0  0  0  0  0  0  0  0  0  0
   15.1650    4.6030    1.3370 C   0  0  0  0  0  0  0  0  0  0  0  0
   14.8350    4.1170    0.2810 C   0  0  0  0  0  0  0  0  0  0  0  0
   14.5020    3.4690   -0.9250 C   0  0  0  0  0  0  0  0  0  0  0  0
   13.6830    4.0740   -1.9120 C   0  0  0  0  0  0  0  0  0  0  0  0
   13.3730    3.4510   -3.0730 N   0  0  0  0  0  0  0  0  0  0  0  0
   13.8590    2.2020   -3.3010 C   0  0  0  0  0  0  0  0  0  0  0  0
   14.6610    1.5260   -2.3610 C   0  0  0  0  0  0  0  0  0  0  0  0
   15.1550    0.1530   -2.5840 C   0  0  0  0  0  0  0  0  0  0  0  0
   16.0430   -0.1400   -3.6330 C   0  0  0  0  0  0  0  0  0  0  0  0
   16.5660   -1.4280   -3.7570 C   0  0  0  0  0  0  0  0  0  0  0  0
   16.1870   -2.4430   -2.8700 C   0  0  0  0  0  0  0  0  0  0  0  0
   15.2630   -2.1660   -1.8570 C   0  0  0  0  0  0  0  0  0  0  0  0
   14.7810   -3.2510   -0.9130 C   0  0  1  0  0  0  0  0  0  0  0  0
   15.0620   -4.6740   -1.3640 C   0  0  0  0  0  0  0  0  0  0  0  0
   16.3010   -5.4320   -0.9120 C   0  0  0  0  0  0  0  0  0  0  0  0
   14.9380   -5.8500   -0.4040 C   0  0  0  0  0  0  0  0  0  0  0  0
   15.2820   -2.9230    0.4740 N   0  3  0  0  0  0  0  0  0  0  0  0
   14.2360   -2.8140    1.3810 C   0  0  0  0  0  0  0  0  0  0  0  0
   14.3990   -2.6790    2.7270 N   0  0  0  0  0  0  0  0  0  0  0  0
   13.0140   -2.9230    0.7110 N   0  0  0  0  0  0  0  0  0  0  0  0
   11.7230   -2.7200    1.3990 C   0  0  0  0  0  0  0  0  0  0  0  0
   13.2260   -3.1500   -0.7290 C   0  0  0  0  0  0  0  0  0  0  0  0
   12.3230   -3.2280   -1.4980 O   0  0  0  0  0  0  0  0  0  0  0  0
   14.7660   -0.8620   -1.7000 C   0  0  0  0  0  0  0  0  0  0  0  0
   14.9870    2.1740   -1.1620 C   0  0  0  0  0  0  0  0  0  0  0  0
   15.3680    6.2570    2.6210 H   0  0  0  0  0  0  0  0  0  0  0  0
   14.9640    4.6530    3.4140 H   0  0  0  0  0  0  0  0  0  0  0  0
   16.6330    4.9510    2.8080 H   0  0  0  0  0  0  0  0  0  0  0  0
   13.2660    5.0840   -1.7550 H   0  0  0  0  0  0  0  0  0  0  0  0
   13.5960    1.7280   -4.2600 H   0  0  0  0  0  0  0  0  0  0  0  0
   16.3420    0.6380   -4.3430 H   0  0  0  0  0  0  0  0  0  0  0  0
   17.2900   -1.6460   -4.5480 H   0  0  0  0  0  0  0  0  0  0  0  0
   16.6220   -3.4400   -2.9670 H   0  0  0  0  0  0  0  0  0  0  0  0
   14.7210   -4.8300   -2.4060 H   0  0  0  0  0  0  0  0  0  0  0  0
   16.8140   -6.0680   -1.6490 H   0  0  0  0  0  0  0  0  0  0  0  0
   17.0030   -4.9380   -0.2290 H   0  0  0  0  0  0  0  0  0  0  0  0
   14.6720   -5.6590    0.6430 H   0  0  0  0  0  0  0  0  0  0  0  0
   14.4930   -6.7840   -0.7820 H   0  0  0  0  0  0  0  0  0  0  0  0
   16.2550   -3.1370    0.8100 H   0  0  0  0  0  0  0  0  0  0  0  0
   13.6730   -2.2200    3.3300 H   0  0  0  0  0  0  0  0  0  0  0  0
   10.8930   -3.1340    0.7660 H   0  0  0  0  0  0  0  0  0  0  0  0
   11.7240   -3.2570    2.3870 H   0  0  0  0  0  0  0  0  0  0  0  0
   11.5640   -1.6250    1.5710 H   0  0  0  0  0  0  0  0  0  0  0  0
   14.0920   -0.6300   -0.8740 H   0  0  0  0  0  0  0  0  0  0  0  0
   15.6100    1.6690   -0.4170 H   0  0  0  0  0  0  0  0  0  0  0  0
   15.3760   -2.5660    3.1110 H   0  0  0  0  0  0  0  0  0  0  0  0
  1  2  1  0  0  0  0
  1 27  1  0  0  0  0
  1 28  1  0  0  0  0
  1 29  1  0  0  0  0
  2  3  3  0  0  0  0
  3  4  1  0  0  0  0
  4  5  2  0  0  0  0
  4 26  1  0  0  0  0
  5  6  1  0  0  0  0
  5 30  1  0  0  0  0
  6  7  2  0  0  0  0
  7  8  1  0  0  0  0
  7 31  1  0  0  0  0
  8  9  1  0  0  0  0
  8 26  2  0  0  0  0
  9 10  2  0  0  0  0
  9 25  1  0  0  0  0
 10 11  1  0  0  0  0
 10 32  1  0  0  0  0
 11 12  2  0  0  0  0
 11 33  1  0  0  0  0
 12 13  1  0  0  0  0
 12 34  1  0  0  0  0
 13 14  1  0  0  0  0
 13 25  2  0  0  0  0
 14 15  1  0  0  0  0
 14 18  1  0  0  0  0
 14 23  1  0  0  0  0
 15 16  1  0  0  0  0
 15 17  1  0  0  0  0
 15 35  1  0  0  0  0
 16 17  1  0  0  0  0
 16 36  1  0  0  0  0
 16 37  1  0  0  0  0
 17 38  1  0  0  0  0
 17 39  1  0  0  0  0
 18 19  2  0  0  0  0
 18 40  1  0  0  0  0
 19 20  1  0  0  0  0
 19 21  1  0  0  0  0
 20 41  1  0  0  0  0
 20 47  1  0  0  0  0
 21 22  1  0  0  0  0
 21 23  1  0  0  0  0
 22 42  1  0  0  0  0
 22 43  1  0  0  0  0
 22 44  1  0  0  0  0
 23 24  2  0  0  0  0
 25 45  1  0  0  0  0
 26 46  1  0  0  0  0
M  CHG  1  18   1
M  END
$$$$
