p38a_2r
 OpenBabel02232411163D
Structure written by MMmdl.
 56 59  0  0  0  0  0  0  0  0999 V2000
   36.3370   35.9590   15.9400 C   0  0  0  0  0  0  0  0  0  0  0  0
   34.3330   35.0280   21.3800 C   0  0  0  0  0  0  0  0  0  0  0  0
   35.6820   35.5040   17.0810 C   0  0  0  0  0  0  0  0  0  0  0  0
   33.6520   39.1640   23.8060 C   0  0  0  0  0  0  0  0  0  0  0  0
   34.6690   37.8680   21.5910 C   0  0  0  0  0  0  0  0  0  0  0  0
   35.2260   37.1780   20.4590 C   0  0  0  0  0  0  0  0  0  0  0  0
   37.6280   36.4690   16.1250 C   0  0  0  0  0  0  0  0  0  0  0  0
   38.2740   36.5010   17.3630 C   0  0  0  0  0  0  0  0  0  0  0  0
   37.5830   36.0670   18.5000 C   0  0  0  0  0  0  0  0  0  0  0  0
   34.0080   37.1530   22.6330 C   0  0  0  0  0  0  0  0  0  0  0  0
   34.7610   39.2790   21.7350 C   0  0  0  0  0  0  0  0  0  0  0  0
   35.0850   35.8360   20.3830 C   0  0  0  0  0  0  0  0  0  0  0  0
   36.2850   35.5690   18.3540 C   0  0  0  0  0  0  0  0  0  0  0  0
   34.4680   34.9760   16.9940 F   0  0  0  0  0  0  0  0  0  0  0  0
   35.5660   34.9750   19.3990 O   0  0  0  0  0  0  0  0  0  0  0  0
   34.2860   39.9330   22.8010 N   0  0  0  0  0  0  0  0  0  0  0  0
   34.1010   33.8420   21.2840 O   0  0  0  0  0  0  0  0  0  0  0  0
   33.8460   35.7590   22.5250 N   0  0  0  0  0  0  0  0  0  0  0  0
   33.5080   37.7960   23.7430 N   0  0  0  0  0  0  0  0  0  0  0  0
   33.1100   39.9120   24.8320 N   0  0  0  0  0  0  0  0  0  0  0  0
   35.8640   35.9430   14.9550 H   0  0  0  0  0  0  0  0  0  0  0  0
   35.7480   37.7700   19.7030 H   0  0  0  0  0  0  0  0  0  0  0  0
   39.2940   36.8860   17.4510 H   0  0  0  0  0  0  0  0  0  0  0  0
   38.0550   36.1370   19.4820 H   0  0  0  0  0  0  0  0  0  0  0  0
   35.2400   39.8800   20.9450 H   0  0  0  0  0  0  0  0  0  0  0  0
   33.4130   40.9090   24.8900 H   0  0  0  0  0  0  0  0  0  0  0  0
   38.2560   36.9780   15.0660 F   0  0  0  0  0  0  0  0  0  0  0  0
   33.1320   38.4380   28.3940 C   0  0  0  0  0  0  0  0  0  0  0  0
   33.7170   38.9040   27.0540 C   0  0  0  0  0  0  0  0  0  0  0  0
   32.5860   39.4260   26.1440 C   0  0  0  0  0  0  0  0  0  0  0  0
   31.4690   38.3800   26.0030 C   0  0  0  0  0  0  0  0  0  0  0  0
   30.9880   37.9500   27.3940 C   0  0  0  0  0  0  0  0  0  0  0  0
   32.0770   37.4690   28.2160 O   0  0  0  0  0  0  0  0  0  0  0  0
   32.7350   39.3030   28.9740 H   0  0  0  0  0  0  0  0  0  0  0  0
   33.8850   37.8650   28.9830 H   0  0  0  0  0  0  0  0  0  0  0  0
   34.2440   38.0560   26.5590 H   0  0  0  0  0  0  0  0  0  0  0  0
   34.4600   39.7180   27.2410 H   0  0  0  0  0  0  0  0  0  0  0  0
   32.1510   40.3600   26.6140 H   0  0  0  0  0  0  0  0  0  0  0  0
   30.6170   38.8140   25.4280 H   0  0  0  0  0  0  0  0  0  0  0  0
   31.8530   37.4860   25.4540 H   0  0  0  0  0  0  0  0  0  0  0  0
   30.4830   38.7840   27.9270 H   0  0  0  0  0  0  0  0  0  0  0  0
   30.3320   37.0510   27.3310 H   0  0  0  0  0  0  0  0  0  0  0  0
   33.1450   34.9790   23.5860 C   0  0  0  0  0  0  0  0  0  0  0  0
   32.3900   35.6440   24.0880 H   0  0  0  0  0  0  0  0  0  0  0  0
   32.5920   34.1320   23.0890 H   0  0  0  0  0  0  0  0  0  0  0  0
   34.0970   34.3660   24.6700 C   0  0  0  0  0  0  0  0  0  0  0  0
   33.3800   33.1660   25.0750 O   0  0  0  0  0  0  0  0  0  0  0  0
   33.9010   32.3480   24.8240 H   0  0  0  0  0  0  0  0  0  0  0  0
   34.1930   35.2460   25.9120 C   0  0  0  0  0  0  0  0  0  0  0  0
   33.1840   35.5100   26.3030 H   0  0  0  0  0  0  0  0  0  0  0  0
   34.7520   34.7270   26.7230 H   0  0  0  0  0  0  0  0  0  0  0  0
   34.7250   36.1920   25.6670 H   0  0  0  0  0  0  0  0  0  0  0  0
   35.4780   33.9830   24.1400 C   0  0  0  0  0  0  0  0  0  0  0  0
   36.0580   33.4610   24.9350 H   0  0  0  0  0  0  0  0  0  0  0  0
   35.3840   33.2940   23.2750 H   0  0  0  0  0  0  0  0  0  0  0  0
   36.0460   34.8880   23.8460 H   0  0  0  0  0  0  0  0  0  0  0  0
  1  3  2  0  0  0  0
  1  7  1  0  0  0  0
  1 21  1  0  0  0  0
  2 12  1  0  0  0  0
  2 17  2  0  0  0  0
  2 18  1  0  0  0  0
  3 13  1  0  0  0  0
  3 14  1  0  0  0  0
  4 16  2  0  0  0  0
  4 19  1  0  0  0  0
  4 20  1  0  0  0  0
  5  6  1  0  0  0  0
  5 10  1  0  0  0  0
  5 11  2  0  0  0  0
  6 12  2  0  0  0  0
  6 22  1  0  0  0  0
  7  8  2  0  0  0  0
  7 27  1  0  0  0  0
  8  9  1  0  0  0  0
  8 23  1  0  0  0  0
  9 13  2  0  0  0  0
  9 24  1  0  0  0  0
 10 18  1  0  0  0  0
 10 19  2  0  0  0  0
 11 16  1  0  0  0  0
 11 25  1  0  0  0  0
 12 15  1  0  0  0  0
 13 15  1  0  0  0  0
 18 43  1  0  0  0  0
 20 26  1  0  0  0  0
 20 30  1  0  0  0  0
 28 29  1  0  0  0  0
 28 33  1  0  0  0  0
 28 34  1  0  0  0  0
 28 35  1  0  0  0  0
 29 30  1  0  0  0  0
 29 36  1  0  0  0  0
 29 37  1  0  0  0  0
 30 31  1  0  0  0  0
 30 38  1  0  0  0  0
 31 32  1  0  0  0  0
 31 39  1  0  0  0  0
 31 40  1  0  0  0  0
 32 33  1  0  0  0  0
 32 41  1  0  0  0  0
 32 42  1  0  0  0  0
 43 44  1  0  0  0  0
 43 45  1  0  0  0  0
 43 46  1  0  0  0  0
 46 47  1  0  0  0  0
 46 49  1  0  0  0  0
 46 53  1  0  0  0  0
 47 48  1  0  0  0  0
 49 50  1  0  0  0  0
 49 51  1  0  0  0  0
 49 52  1  0  0  0  0
 53 54  1  0  0  0  0
 53 55  1  0  0  0  0
 53 56  1  0  0  0  0
M  END
$$$$
