35 flip
                    3D
 Schrodinger Suite 2022-3.
 41 43  0  0  1  0  0  0  0  0999 V2000
    3.5470  -48.5460    7.2000 O   0  0  0  0  0  0  0  0  0  0  0  0
    3.1170  -49.3900    6.4020 C   0  0  0  0  0  0  0  0  0  0  0  0
    3.7860  -50.1100    5.6380 O   0  5  0  0  0  0  0  0  0  0  0  0
    1.5940  -49.6260    6.3500 C   0  0  0  0  0  0  0  0  0  0  0  0
   -0.3140  -50.8760    6.5400 C   0  0  0  0  0  0  0  0  0  0  0  0
   -1.2700  -51.8770    6.7760 C   0  0  0  0  0  0  0  0  0  0  0  0
   -2.5950  -51.5730    6.4980 C   0  0  0  0  0  0  0  0  0  0  0  0
   -2.9660  -50.3040    5.9930 C   0  0  0  0  0  0  0  0  0  0  0  0
   -2.0240  -49.3100    5.7600 C   0  0  0  0  0  0  0  0  0  0  0  0
   -0.6720  -49.5740    6.0340 C   0  0  0  0  0  0  0  0  0  0  0  0
    0.5500  -48.8050    5.9390 C   0  0  0  0  0  0  0  0  0  0  0  0
    0.6090  -47.3870    5.4930 C   0  0  0  0  0  0  0  0  0  0  0  0
    0.5940  -46.3980    6.6740 C   0  0  0  0  0  0  0  0  0  0  0  0
   -0.7310  -46.3880    7.4300 C   0  0  0  0  0  0  0  0  0  0  0  0
   -1.6580  -45.7240    6.4880 O   0  0  0  0  0  0  0  0  0  0  0  0
   -2.9290  -45.4830    6.9000 C   0  0  0  0  0  0  0  0  0  0  0  0
   -3.4770  -45.9220    8.1160 C   0  0  0  0  0  0  0  0  0  0  0  0
   -4.8030  -45.5990    8.4360 C   0  0  0  0  0  0  0  0  0  0  0  0
   -5.5480  -44.8530    7.5100 C   0  0  0  0  0  0  0  0  0  0  0  0
   -5.0060  -44.4040    6.2990 C   0  0  0  0  0  0  0  0  0  0  0  0
   -3.6920  -44.7180    5.9830 C   0  0  0  0  0  0  0  0  0  0  0  0
   -0.9910  -52.8550    7.1670 H   0  0  0  0  0  0  0  0  0  0  0  0
   -3.3720  -52.3180    6.6710 H   0  0  0  0  0  0  0  0  0  0  0  0
   -4.0200  -50.1140    5.7880 H   0  0  0  0  0  0  0  0  0  0  0  0
   -2.3390  -48.3410    5.3720 H   0  0  0  0  0  0  0  0  0  0  0  0
   -0.2830  -47.1680    4.8490 H   0  0  0  0  0  0  0  0  0  0  0  0
    1.5310  -47.1980    4.8920 H   0  0  0  0  0  0  0  0  0  0  0  0
    0.7750  -45.3680    6.2880 H   0  0  0  0  0  0  0  0  0  0  0  0
    1.3990  -46.6780    7.3960 H   0  0  0  0  0  0  0  0  0  0  0  0
   -0.6910  -45.7550    8.3410 H   0  0  0  0  0  0  0  0  0  0  0  0
   -1.1330  -47.4060    7.6170 H   0  0  0  0  0  0  0  0  0  0  0  0
   -2.9070  -46.5300    8.8150 H   0  0  0  0  0  0  0  0  0  0  0  0
   -3.2560  -44.3880    5.0450 H   0  0  0  0  0  0  0  0  0  0  0  0
    1.0790  -50.8810    6.7250 N   0  0  0  0  0  0  0  0  0  0  0  0
    1.5940  -51.6870    7.0620 H   0  0  0  0  0  0  0  0  0  0  0  0
   -5.6180  -43.8220    5.6040 H   0  0  0  0  0  0  0  0  0  0  0  0
   -7.2040  -44.4990    7.8500 Cl  0  0  0  0  0  0  0  0  0  0  0  0
   -5.4010  -46.0470    9.7270 C   0  0  0  0  0  0  0  0  0  0  0  0
   -5.9600  -45.2150   10.2200 H   0  0  0  0  0  0  0  0  0  0  0  0
   -6.1200  -46.8820    9.5400 H   0  0  0  0  0  0  0  0  0  0  0  0
   -4.6200  -46.4190   10.4290 H   0  0  0  0  0  0  0  0  0  0  0  0
  1  2  2  0  0  0  0
  2  3  1  0  0  0  0
  2  4  1  0  0  0  0
  4 11  2  0  0  0  0
  4 34  1  0  0  0  0
  5  6  1  0  0  0  0
  5 10  2  0  0  0  0
  5 34  1  0  0  0  0
  6  7  2  0  0  0  0
  6 22  1  0  0  0  0
  7  8  1  0  0  0  0
  7 23  1  0  0  0  0
  8  9  2  0  0  0  0
  8 24  1  0  0  0  0
  9 10  1  0  0  0  0
  9 25  1  0  0  0  0
 10 11  1  0  0  0  0
 11 12  1  0  0  0  0
 12 26  1  0  0  0  0
 12 27  1  0  0  0  0
 12 13  1  0  0  0  0
 13 14  1  0  0  0  0
 13 28  1  0  0  0  0
 13 29  1  0  0  0  0
 14 15  1  0  0  0  0
 14 30  1  0  0  0  0
 14 31  1  0  0  0  0
 15 16  1  0  0  0  0
 16 17  1  0  0  0  0
 16 21  2  0  0  0  0
 17 18  2  0  0  0  0
 17 32  1  0  0  0  0
 18 19  1  0  0  0  0
 18 38  1  0  0  0  0
 19 20  2  0  0  0  0
 19 37  1  0  0  0  0
 20 21  1  0  0  0  0
 20 36  1  0  0  0  0
 21 33  1  0  0  0  0
 34 35  1  0  0  0  0
 38 39  1  0  0  0  0
 38 40  1  0  0  0  0
 38 41  1  0  0  0  0
M  CHG  1   3  -1
M  END
$$$$
