p38a_2aa
 OpenBabel02232411163D
Structure written by MMmdl.
 43 45  0  0  0  0  0  0  0  0999 V2000
   36.3450   36.0050   15.8810 C   0  0  0  0  0  0  0  0  0  0  0  0
   34.5810   35.0570   21.4640 C   0  0  0  0  0  0  0  0  0  0  0  0
   35.6690   35.5620   17.0130 C   0  0  0  0  0  0  0  0  0  0  0  0
   34.0360   39.1670   23.9530 C   0  0  0  0  0  0  0  0  0  0  0  0
   33.6400   39.1650   26.4410 C   0  0  0  0  0  0  0  0  0  0  0  0
   34.7510   37.9240   21.5980 C   0  0  0  0  0  0  0  0  0  0  0  0
   35.1790   37.2490   20.4000 C   0  0  0  0  0  0  0  0  0  0  0  0
   37.6410   36.4970   16.0800 C   0  0  0  0  0  0  0  0  0  0  0  0
   38.2730   36.5210   17.3270 C   0  0  0  0  0  0  0  0  0  0  0  0
   37.5590   36.1040   18.4560 C   0  0  0  0  0  0  0  0  0  0  0  0
   34.3780   37.1690   22.7500 C   0  0  0  0  0  0  0  0  0  0  0  0
   34.6920   39.3380   21.7080 C   0  0  0  0  0  0  0  0  0  0  0  0
   35.1270   35.8980   20.3630 C   0  0  0  0  0  0  0  0  0  0  0  0
   36.2550   35.6260   18.2940 C   0  0  0  0  0  0  0  0  0  0  0  0
   33.9740   34.9840   23.9070 C   0  0  0  0  0  0  0  0  0  0  0  0
   34.4500   35.0500   16.9120 F   0  0  0  0  0  0  0  0  0  0  0  0
   35.5060   35.0490   19.3270 O   0  0  0  0  0  0  0  0  0  0  0  0
   34.3500   39.9700   22.8440 N   0  0  0  0  0  0  0  0  0  0  0  0
   34.3490   33.8710   21.3950 O   0  0  0  0  0  0  0  0  0  0  0  0
   34.3250   35.7700   22.6920 N   0  0  0  0  0  0  0  0  0  0  0  0
   34.0380   37.7870   23.9310 N   0  0  0  0  0  0  0  0  0  0  0  0
   33.6110   39.8150   25.0980 N   0  0  0  0  0  0  0  0  0  0  0  0
   35.8830   35.9930   14.8900 H   0  0  0  0  0  0  0  0  0  0  0  0
   33.9130   40.2260   27.5430 C   0  0  0  0  0  0  0  0  0  0  0  0
   35.5430   37.8570   19.5690 H   0  0  0  0  0  0  0  0  0  0  0  0
   39.2980   36.8890   17.4270 H   0  0  0  0  0  0  0  0  0  0  0  0
   38.0170   36.1750   19.4450 H   0  0  0  0  0  0  0  0  0  0  0  0
   34.9290   39.9680   20.8340 H   0  0  0  0  0  0  0  0  0  0  0  0
   34.5490   35.3680   24.7940 H   0  0  0  0  0  0  0  0  0  0  0  0
   32.8750   35.0650   24.1160 H   0  0  0  0  0  0  0  0  0  0  0  0
   34.2390   33.9030   23.7540 H   0  0  0  0  0  0  0  0  0  0  0  0
   33.6420   40.8530   25.1100 H   0  0  0  0  0  0  0  0  0  0  0  0
   38.2880   36.9980   15.0300 F   0  0  0  0  0  0  0  0  0  0  0  0
   32.2770   38.4730   26.7170 C   0  0  0  0  0  0  0  0  0  0  0  0
   32.2730   37.1130   26.2780 O   0  0  0  0  0  0  0  0  0  0  0  0
   32.7070   37.0510   25.3850 H   0  0  0  0  0  0  0  0  0  0  0  0
   32.0940   38.3900   27.8170 H   0  0  0  0  0  0  0  0  0  0  0  0
   31.4460   39.0180   26.2100 H   0  0  0  0  0  0  0  0  0  0  0  0
   35.0570   41.0330   27.2220 O   0  0  0  0  0  0  0  0  0  0  0  0
   33.0310   40.8880   27.7010 H   0  0  0  0  0  0  0  0  0  0  0  0
   34.2050   39.7140   28.4940 H   0  0  0  0  0  0  0  0  0  0  0  0
   34.7390   41.7610   26.5990 H   0  0  0  0  0  0  0  0  0  0  0  0
   34.4610   38.3940   26.4810 H   0  0  0  0  0  0  0  0  0  0  0  0
  1  3  2  0  0  0  0
  1  8  1  0  0  0  0
  1 23  1  0  0  0  0
  2 13  1  0  0  0  0
  2 19  2  0  0  0  0
  2 20  1  0  0  0  0
  3 14  1  0  0  0  0
  3 16  1  0  0  0  0
  4 18  2  0  0  0  0
  4 21  1  0  0  0  0
  4 22  1  0  0  0  0
  5 22  1  0  0  0  0
  5 24  1  0  0  0  0
  5 34  1  0  0  0  0
  5 43  1  0  0  0  0
  6  7  1  0  0  0  0
  6 11  1  0  0  0  0
  6 12  2  0  0  0  0
  7 13  2  0  0  0  0
  7 25  1  0  0  0  0
  8  9  2  0  0  0  0
  8 33  1  0  0  0  0
  9 10  1  0  0  0  0
  9 26  1  0  0  0  0
 10 14  2  0  0  0  0
 10 27  1  0  0  0  0
 11 20  1  0  0  0  0
 11 21  2  0  0  0  0
 12 18  1  0  0  0  0
 12 28  1  0  0  0  0
 13 17  1  0  0  0  0
 14 17  1  0  0  0  0
 15 20  1  0  0  0  0
 15 29  1  0  0  0  0
 15 30  1  0  0  0  0
 15 31  1  0  0  0  0
 22 32  1  0  0  0  0
 24 39  1  0  0  0  0
 24 40  1  0  0  0  0
 24 41  1  0  0  0  0
 34 35  1  0  0  0  0
 34 37  1  0  0  0  0
 34 38  1  0  0  0  0
 35 36  1  0  0  0  0
 39 42  1  0  0  0  0
M  END
$$$$
