18639-1
 OpenBabel02232411163D
Structure written by MMmdl.
 48 49  0  0  0  0  0  0  0  0999 V2000
   24.4340   10.9220   30.7580 C   0  0  0  0  0  0  0  0  0  0  0  0
   23.1050   11.2630   30.1170 C   0  0  0  0  0  0  0  0  0  0  0  0
   22.0290   11.3210   31.1290 O   0  0  0  0  0  0  0  0  0  0  0  0
   21.4490   10.1700   31.5400 C   0  0  0  0  0  0  0  0  0  0  0  0
   21.9310    8.9820   31.1060 N   0  0  0  0  0  0  0  0  0  0  0  0
   21.2410    7.8380   31.4740 C   0  0  0  0  0  0  0  0  0  0  0  0
   20.1050    7.8670   32.2750 C   0  0  0  0  0  0  0  0  0  0  0  0
   19.6130    9.1180   32.7380 C   0  0  0  0  0  0  0  0  0  0  0  0
   18.4770    9.1520   33.5060 N   0  0  0  0  0  0  0  0  0  0  0  0
   20.3010   10.3190   32.3750 C   0  0  0  0  0  0  0  0  0  0  0  0
   19.8900   11.6160   32.7490 C   0  0  0  0  0  0  0  0  0  0  0  0
   19.6040   12.7080   33.0150 N   0  0  0  0  0  0  0  0  0  0  0  0
   21.8310    6.6750   30.9270 N   0  0  0  0  0  0  0  0  0  0  0  0
   21.2630    5.3850   30.8720 C   0  0  0  0  0  0  0  0  0  0  0  0
   20.1880    5.1150   31.3630 O   0  0  0  0  0  0  0  0  0  0  0  0
   22.0950    4.3930   30.0660 C   0  0  0  0  0  0  0  0  0  0  0  0
   23.4680    4.1410   30.6160 C   0  0  0  0  0  0  0  0  0  0  0  0
   24.5540    5.0170   30.2960 C   0  0  0  0  0  0  0  0  0  0  0  0
   24.1800    6.0680   29.4680 O   0  0  0  0  0  0  0  0  0  0  0  0
   25.1250    7.1610   29.2950 C   0  0  0  0  0  0  0  0  0  0  0  0
   25.8390    4.7830   30.7560 C   0  0  0  0  0  0  0  0  0  0  0  0
   26.0880    3.6660   31.5810 C   0  0  0  0  0  0  0  0  0  0  0  0
   27.4470    3.4220   32.0720 N   0  3  0  0  0  0  0  0  0  0  0  0
   27.6000    2.6060   32.9690 O   0  5  0  0  0  0  0  0  0  0  0  0
   28.3730    4.0400   31.5620 O   0  0  0  0  0  0  0  0  0  0  0  0
   25.0280    2.7880   31.9060 C   0  0  0  0  0  0  0  0  0  0  0  0
   23.7260    3.0340   31.4090 C   0  0  0  0  0  0  0  0  0  0  0  0
   25.3920    1.7470   32.7060 O   0  0  0  0  0  0  0  0  0  0  0  0
   24.4060    0.6990   32.9470 C   0  0  0  0  0  0  0  0  0  0  0  0
   25.2230   10.8800   29.9660 H   0  0  0  0  0  0  0  0  0  0  0  0
   24.7260   11.6880   31.5070 H   0  0  0  0  0  0  0  0  0  0  0  0
   24.3980    9.9230   31.2520 H   0  0  0  0  0  0  0  0  0  0  0  0
   23.0690   12.3180   29.7530 H   0  0  0  0  0  0  0  0  0  0  0  0
   22.8240   10.5390   29.3200 H   0  0  0  0  0  0  0  0  0  0  0  0
   19.5740    6.9490   32.5350 H   0  0  0  0  0  0  0  0  0  0  0  0
   17.9800    8.2770   33.7610 H   0  0  0  0  0  0  0  0  0  0  0  0
   18.0640   10.0350   33.8060 H   0  0  0  0  0  0  0  0  0  0  0  0
   22.7390    6.8340   30.4200 H   0  0  0  0  0  0  0  0  0  0  0  0
   21.5320    3.4230   30.0130 H   0  0  0  0  0  0  0  0  0  0  0  0
   22.1960    4.8010   29.0200 H   0  0  0  0  0  0  0  0  0  0  0  0
   25.4780    7.5370   30.2780 H   0  0  0  0  0  0  0  0  0  0  0  0
   25.9580    6.8170   28.6450 H   0  0  0  0  0  0  0  0  0  0  0  0
   24.4880    7.9190   28.7800 H   0  0  0  0  0  0  0  0  0  0  0  0
   26.6720    5.4410   30.4800 H   0  0  0  0  0  0  0  0  0  0  0  0
   22.9180    2.3370   31.6460 H   0  0  0  0  0  0  0  0  0  0  0  0
   25.0030   -0.0330   33.5410 H   0  0  0  0  0  0  0  0  0  0  0  0
   23.5590    1.1000   33.5440 H   0  0  0  0  0  0  0  0  0  0  0  0
   24.0760    0.2560   31.9820 H   0  0  0  0  0  0  0  0  0  0  0  0
  1  2  1  0  0  0  0
  1 30  1  0  0  0  0
  1 31  1  0  0  0  0
  1 32  1  0  0  0  0
  2  3  1  0  0  0  0
  2 33  1  0  0  0  0
  2 34  1  0  0  0  0
  3  4  1  0  0  0  0
  4 10  2  0  0  0  0
  4  5  1  0  0  0  0
  5  6  2  0  0  0  0
  6  7  1  0  0  0  0
  6 13  1  0  0  0  0
  7  8  2  0  0  0  0
  7 35  1  0  0  0  0
  8  9  1  0  0  0  0
  8 10  1  0  0  0  0
  9 36  1  0  0  0  0
  9 37  1  0  0  0  0
 10 11  1  0  0  0  0
 11 12  3  0  0  0  0
 13 14  1  0  0  0  0
 13 38  1  0  0  0  0
 14 15  2  0  0  0  0
 14 16  1  0  0  0  0
 16 17  1  0  0  0  0
 16 39  1  0  0  0  0
 16 40  1  0  0  0  0
 17 27  2  0  0  0  0
 17 18  1  0  0  0  0
 18 19  1  0  0  0  0
 18 21  2  0  0  0  0
 19 20  1  0  0  0  0
 20 41  1  0  0  0  0
 20 42  1  0  0  0  0
 20 43  1  0  0  0  0
 21 22  1  0  0  0  0
 21 44  1  0  0  0  0
 22 23  1  0  0  0  0
 22 26  2  0  0  0  0
 23 24  1  0  0  0  0
 23 25  2  0  0  0  0
 26 27  1  0  0  0  0
 26 28  1  0  0  0  0
 27 45  1  0  0  0  0
 28 29  1  0  0  0  0
 29 46  1  0  0  0  0
 29 47  1  0  0  0  0
 29 48  1  0  0  0  0
M  CHG  2  23   1  24  -1
M  END
$$$$
