p38a_2z
 OpenBabel02232411163D
Structure written by MMmdl.
 45 47  0  0  0  0  0  0  0  0999 V2000
   38.3590   36.6060   17.0260 C   0  0  0  0  0  0  0  0  0  0  0  0
   34.5970   34.9700   21.0090 C   0  0  0  0  0  0  0  0  0  0  0  0
   37.5860   36.0930   18.0620 C   0  0  0  0  0  0  0  0  0  0  0  0
   33.8520   39.0240   23.5450 C   0  0  0  0  0  0  0  0  0  0  0  0
   32.5340   39.0380   25.7320 C   0  0  0  0  0  0  0  0  0  0  0  0
   34.7250   37.8460   21.2080 C   0  0  0  0  0  0  0  0  0  0  0  0
   35.1620   37.2010   20.0040 C   0  0  0  0  0  0  0  0  0  0  0  0
   37.7130   36.7780   15.7940 C   0  0  0  0  0  0  0  0  0  0  0  0
   36.3770   36.4430   15.5700 C   0  0  0  0  0  0  0  0  0  0  0  0
   35.6260   35.9050   16.6210 C   0  0  0  0  0  0  0  0  0  0  0  0
   34.2680   37.0640   22.3090 C   0  0  0  0  0  0  0  0  0  0  0  0
   34.7280   39.2590   21.3790 C   0  0  0  0  0  0  0  0  0  0  0  0
   35.1220   35.8510   19.9360 C   0  0  0  0  0  0  0  0  0  0  0  0
   36.2390   35.7200   17.8630 C   0  0  0  0  0  0  0  0  0  0  0  0
   33.7250   34.8680   23.3700 C   0  0  0  0  0  0  0  0  0  0  0  0
   38.1080   35.9620   19.2750 F   0  0  0  0  0  0  0  0  0  0  0  0
   35.5320   35.0500   18.8680 O   0  0  0  0  0  0  0  0  0  0  0  0
   34.3180   39.8590   22.5030 N   0  0  0  0  0  0  0  0  0  0  0  0
   34.4750   33.7650   20.9360 O   0  0  0  0  0  0  0  0  0  0  0  0
   34.2250   35.6610   22.2120 N   0  0  0  0  0  0  0  0  0  0  0  0
   33.8520   37.6460   23.4780 N   0  0  0  0  0  0  0  0  0  0  0  0
   33.4360   39.6540   24.6930 N   0  0  0  0  0  0  0  0  0  0  0  0
   39.4010   36.8990   17.1780 H   0  0  0  0  0  0  0  0  0  0  0  0
   33.4010   38.3810   26.8150 C   0  0  0  0  0  0  0  0  0  0  0  0
   35.5180   37.8270   19.1830 H   0  0  0  0  0  0  0  0  0  0  0  0
   35.9050   36.6110   14.6010 H   0  0  0  0  0  0  0  0  0  0  0  0
   34.5720   35.6540   16.4670 H   0  0  0  0  0  0  0  0  0  0  0  0
   35.0650   39.9070   20.5530 H   0  0  0  0  0  0  0  0  0  0  0  0
   34.2090   35.2200   24.3210 H   0  0  0  0  0  0  0  0  0  0  0  0
   32.6140   34.9930   23.4690 H   0  0  0  0  0  0  0  0  0  0  0  0
   33.9630   33.7810   23.2260 H   0  0  0  0  0  0  0  0  0  0  0  0
   33.4450   40.6930   24.7080 H   0  0  0  0  0  0  0  0  0  0  0  0
   38.3980   37.3300   14.7950 F   0  0  0  0  0  0  0  0  0  0  0  0
   31.7540   40.2450   26.3530 C   0  0  0  0  0  0  0  0  0  0  0  0
   31.5020   38.0580   25.1590 C   0  0  0  0  0  0  0  0  0  0  0  0
   31.1930   40.9610   25.2370 O   0  0  0  0  0  0  0  0  0  0  0  0
   30.2140   41.1010   25.3730 H   0  0  0  0  0  0  0  0  0  0  0  0
   30.9710   39.8790   27.0440 H   0  0  0  0  0  0  0  0  0  0  0  0
   32.4350   40.9650   26.8620 H   0  0  0  0  0  0  0  0  0  0  0  0
   30.7960   37.7520   25.9660 H   0  0  0  0  0  0  0  0  0  0  0  0
   30.9230   38.5350   24.3400 H   0  0  0  0  0  0  0  0  0  0  0  0
   31.9870   37.1280   24.7820 H   0  0  0  0  0  0  0  0  0  0  0  0
   32.7610   38.0450   27.6650 H   0  0  0  0  0  0  0  0  0  0  0  0
   33.9260   37.4860   26.4050 H   0  0  0  0  0  0  0  0  0  0  0  0
   34.1650   39.0900   27.2060 H   0  0  0  0  0  0  0  0  0  0  0  0
  1  3  2  0  0  0  0
  1  8  1  0  0  0  0
  1 23  1  0  0  0  0
  2 13  1  0  0  0  0
  2 19  2  0  0  0  0
  2 20  1  0  0  0  0
  3 14  1  0  0  0  0
  3 16  1  0  0  0  0
  4 18  2  0  0  0  0
  4 21  1  0  0  0  0
  4 22  1  0  0  0  0
  5 22  1  0  0  0  0
  5 24  1  0  0  0  0
  5 34  1  0  0  0  0
  5 35  1  0  0  0  0
  6  7  1  0  0  0  0
  6 11  1  0  0  0  0
  6 12  2  0  0  0  0
  7 13  2  0  0  0  0
  7 25  1  0  0  0  0
  8  9  2  0  0  0  0
  8 33  1  0  0  0  0
  9 10  1  0  0  0  0
  9 26  1  0  0  0  0
 10 14  2  0  0  0  0
 10 27  1  0  0  0  0
 11 20  1  0  0  0  0
 11 21  2  0  0  0  0
 12 18  1  0  0  0  0
 12 28  1  0  0  0  0
 13 17  1  0  0  0  0
 14 17  1  0  0  0  0
 15 20  1  0  0  0  0
 15 29  1  0  0  0  0
 15 30  1  0  0  0  0
 15 31  1  0  0  0  0
 22 32  1  0  0  0  0
 24 43  1  0  0  0  0
 24 44  1  0  0  0  0
 24 45  1  0  0  0  0
 34 36  1  0  0  0  0
 34 38  1  0  0  0  0
 34 39  1  0  0  0  0
 35 40  1  0  0  0  0
 35 41  1  0  0  0  0
 35 42  1  0  0  0  0
 36 37  1  0  0  0  0
M  END
$$$$
