23330(2qbq)
 OpenBabel02232411173D
Structure written by MMmdl.
 57 59  0  0  0  0  0  0  0  0999 V2000
   43.6780   13.7590   16.7540 S   0  0  0  0  0  0  0  0  0  0  0  0
   43.5520   15.1640   15.7190 C   0  0  0  0  0  0  0  0  0  0  0  0
   42.6540   14.8990   14.7150 C   0  0  0  0  0  0  0  0  0  0  0  0
   42.0660   13.5780   14.8040 C   0  0  0  0  0  0  0  0  0  0  0  0
   42.4920   12.8310   15.8690 C   0  0  0  0  0  0  0  0  0  0  0  0
   44.3560   16.4230   16.0450 C   0  0  0  0  0  0  0  0  0  0  0  0
   45.0920   16.3240   17.0560 O   0  0  0  0  0  0  0  0  0  0  0  0
   44.2620   17.4120   15.3200 O   0  5  0  0  0  0  0  0  0  0  0  0
   42.0970   11.4960   16.2760 C   0  0  0  0  0  0  0  0  0  0  0  0
   40.7840   11.0650   16.0530 C   0  0  0  0  0  0  0  0  0  0  0  0
   40.3980    9.7250   16.2910 C   0  0  0  0  0  0  0  0  0  0  0  0
   41.3170    8.8420   16.8750 C   0  0  0  0  0  0  0  0  0  0  0  0
   42.6070    9.3020   17.1760 C   0  0  0  0  0  0  0  0  0  0  0  0
   43.0130   10.5950   16.8660 C   0  0  0  0  0  0  0  0  0  0  0  0
   40.8350   12.9380   13.4960 Br  0  0  0  0  0  0  0  0  0  0  0  0
   42.4500   15.7550   13.6810 O   0  0  0  0  0  0  0  0  0  0  0  0
   41.0750   16.2390   13.5480 C   0  0  0  0  0  0  0  0  0  0  0  0
   41.2890   17.6440   12.9060 C   0  0  0  0  0  0  0  0  0  0  0  0
   40.2490   18.3270   12.7800 O   0  0  0  0  0  0  0  0  0  0  0  0
   42.4280   17.9690   12.5520 O   0  5  0  0  0  0  0  0  0  0  0  0
   39.0350    9.3950   15.9870 N   0  0  0  0  0  0  0  0  0  0  0  0
   38.6470    7.9590   15.8110 C   0  0  0  0  0  0  0  0  0  0  0  0
   37.1030    7.9050   15.7350 C   0  0  0  0  0  0  0  0  0  0  0  0
   36.5710    6.4620   15.5280 C   0  0  0  0  0  0  0  0  0  0  0  0
   37.2590    5.8050   14.3050 C   0  0  0  0  0  0  0  0  0  0  0  0
   38.8070    5.8840   14.2720 C   0  0  0  0  0  0  0  0  0  0  0  0
   39.2930    7.3290   14.5560 C   0  0  0  0  0  0  0  0  0  0  0  0
   35.0500    6.5260   15.2150 C   0  0  0  0  0  0  0  0  0  0  0  0
   36.7350    5.6270   16.8180 C   0  0  0  0  0  0  0  0  0  0  0  0
   39.2710    5.4990   12.8380 C   0  0  0  0  0  0  0  0  0  0  0  0
   39.4380    4.8760   15.2640 C   0  0  0  0  0  0  0  0  0  0  0  0
   40.0200   11.7590   15.6940 H   0  0  0  0  0  0  0  0  0  0  0  0
   41.0600    7.8080   17.0940 H   0  0  0  0  0  0  0  0  0  0  0  0
   43.3050    8.6090   17.6530 H   0  0  0  0  0  0  0  0  0  0  0  0
   44.0420   10.8900   17.0760 H   0  0  0  0  0  0  0  0  0  0  0  0
   40.5330   15.5620   12.8560 H   0  0  0  0  0  0  0  0  0  0  0  0
   40.5610   16.2910   14.5300 H   0  0  0  0  0  0  0  0  0  0  0  0
   38.6660    9.9620   15.1940 H   0  0  0  0  0  0  0  0  0  0  0  0
   38.9800    7.3950   16.7190 H   0  0  0  0  0  0  0  0  0  0  0  0
   36.6760    8.3130   16.6800 H   0  0  0  0  0  0  0  0  0  0  0  0
   36.7480    8.5380   14.8890 H   0  0  0  0  0  0  0  0  0  0  0  0
   36.9530    4.7360   14.2520 H   0  0  0  0  0  0  0  0  0  0  0  0
   36.8740    6.3110   13.3890 H   0  0  0  0  0  0  0  0  0  0  0  0
   39.0650    7.9600   13.6700 H   0  0  0  0  0  0  0  0  0  0  0  0
   40.4000    7.2950   14.6880 H   0  0  0  0  0  0  0  0  0  0  0  0
   34.6620    5.5070   15.0000 H   0  0  0  0  0  0  0  0  0  0  0  0
   34.5040    6.9260   16.0920 H   0  0  0  0  0  0  0  0  0  0  0  0
   34.8610    7.1690   14.3340 H   0  0  0  0  0  0  0  0  0  0  0  0
   36.4490    4.5700   16.6300 H   0  0  0  0  0  0  0  0  0  0  0  0
   37.7840    5.6480   17.1770 H   0  0  0  0  0  0  0  0  0  0  0  0
   36.0850    6.0300   17.6240 H   0  0  0  0  0  0  0  0  0  0  0  0
   40.3790    5.5820   12.7800 H   0  0  0  0  0  0  0  0  0  0  0  0
   38.9850    4.4520   12.6120 H   0  0  0  0  0  0  0  0  0  0  0  0
   38.8210    6.1680   12.0830 H   0  0  0  0  0  0  0  0  0  0  0  0
   40.4080    4.5130   14.8670 H   0  0  0  0  0  0  0  0  0  0  0  0
   39.6360    5.3560   16.2420 H   0  0  0  0  0  0  0  0  0  0  0  0
   38.7770    4.0000   15.4120 H   0  0  0  0  0  0  0  0  0  0  0  0
  1  2  1  0  0  0  0
  1  5  1  0  0  0  0
  2  3  2  0  0  0  0
  2  6  1  0  0  0  0
  3  4  1  0  0  0  0
  3 16  1  0  0  0  0
  4  5  2  0  0  0  0
  4 15  1  0  0  0  0
  5  9  1  0  0  0  0
  6  7  2  0  0  0  0
  6  8  1  0  0  0  0
  9 10  2  0  0  0  0
  9 14  1  0  0  0  0
 10 11  1  0  0  0  0
 10 32  1  0  0  0  0
 11 12  2  0  0  0  0
 11 21  1  0  0  0  0
 12 13  1  0  0  0  0
 12 33  1  0  0  0  0
 13 14  2  0  0  0  0
 13 34  1  0  0  0  0
 14 35  1  0  0  0  0
 16 17  1  0  0  0  0
 17 18  1  0  0  0  0
 17 36  1  0  0  0  0
 17 37  1  0  0  0  0
 18 19  2  0  0  0  0
 18 20  1  0  0  0  0
 21 22  1  0  0  0  0
 21 38  1  0  0  0  0
 22 23  1  0  0  0  0
 22 27  1  0  0  0  0
 22 39  1  0  0  0  0
 23 24  1  0  0  0  0
 23 40  1  0  0  0  0
 23 41  1  0  0  0  0
 24 25  1  0  0  0  0
 24 28  1  0  0  0  0
 24 29  1  0  0  0  0
 25 26  1  0  0  0  0
 25 42  1  0  0  0  0
 25 43  1  0  0  0  0
 26 27  1  0  0  0  0
 26 30  1  0  0  0  0
 26 31  1  0  0  0  0
 27 44  1  0  0  0  0
 27 45  1  0  0  0  0
 28 46  1  0  0  0  0
 28 47  1  0  0  0  0
 28 48  1  0  0  0  0
 29 49  1  0  0  0  0
 29 50  1  0  0  0  0
 29 51  1  0  0  0  0
 30 52  1  0  0  0  0
 30 53  1  0  0  0  0
 30 54  1  0  0  0  0
 31 55  1  0  0  0  0
 31 56  1  0  0  0  0
 31 57  1  0  0  0  0
M  CHG  2   8  -1  20  -1
M  END
$$$$
