CAT-17b
 OpenBabel02232411143D
Structure written by MMmdl.
 47 50  0  0  1  0  0  0  0  0999 V2000
   15.0490    5.0230    1.8200 C   0  0  0  0  0  0  0  0  0  0  0  0
   15.8670    4.0850    1.0750 O   0  0  0  0  0  0  0  0  0  0  0  0
   15.5950    3.9060   -0.2640 C   0  0  0  0  0  0  0  0  0  0  0  0
   14.9820    4.8310   -1.1190 C   0  0  0  0  0  0  0  0  0  0  0  0
   14.8050    4.4690   -2.4580 C   0  0  0  0  0  0  0  0  0  0  0  0
   15.1740    3.2020   -2.9220 C   0  0  0  0  0  0  0  0  0  0  0  0
   15.7460    2.2680   -2.0410 C   0  0  0  0  0  0  0  0  0  0  0  0
   15.9060    0.8460   -2.4320 C   0  0  0  0  0  0  0  0  0  0  0  0
   16.2220    0.4210   -3.7330 C   0  0  0  0  0  0  0  0  0  0  0  0
   16.1840   -0.9400   -4.0480 C   0  0  0  0  0  0  0  0  0  0  0  0
   15.8120   -1.8960   -3.0950 C   0  0  0  0  0  0  0  0  0  0  0  0
   15.5490   -1.4920   -1.7810 C   0  0  0  0  0  0  0  0  0  0  0  0
   15.0420   -2.4250   -0.7070 C   0  0  1  0  0  0  0  0  0  0  0  0
   15.3900   -3.8960   -0.6160 C   0  0  0  0  0  0  0  0  0  0  0  0
   14.8690   -4.9180   -1.6000 C   0  0  0  0  0  0  0  0  0  0  0  0
   16.3590   -4.6670   -1.4930 C   0  0  0  0  0  0  0  0  0  0  0  0
   15.3620   -1.8970    0.6840 N   0  3  0  0  0  0  0  0  0  0  0  0
   14.2140   -2.1010    1.4860 C   0  0  0  0  0  0  0  0  0  0  0  0
   14.2960   -2.2860    2.8310 N   0  0  0  0  0  0  0  0  0  0  0  0
   13.0800   -2.2040    0.6980 N   0  0  0  0  0  0  0  0  0  0  0  0
   11.7060   -2.2870    1.2320 C   0  0  0  0  0  0  0  0  0  0  0  0
   13.4710   -2.3410   -0.7280 C   0  0  0  0  0  0  0  0  0  0  0  0
   12.6660   -2.3600   -1.6000 O   0  0  0  0  0  0  0  0  0  0  0  0
   15.6150   -0.1270   -1.4630 C   0  0  0  0  0  0  0  0  0  0  0  0
   16.0150    2.6460   -0.7210 C   0  0  0  0  0  0  0  0  0  0  0  0
   15.1920    4.6440    2.8600 H   0  0  0  0  0  0  0  0  0  0  0  0
   15.4610    6.0410    1.6800 H   0  0  0  0  0  0  0  0  0  0  0  0
   13.9930    4.9470    1.4990 H   0  0  0  0  0  0  0  0  0  0  0  0
   14.6330    5.7980   -0.7660 H   0  0  0  0  0  0  0  0  0  0  0  0
   14.3410    5.1810   -3.1520 H   0  0  0  0  0  0  0  0  0  0  0  0
   14.9850    2.9360   -3.9650 H   0  0  0  0  0  0  0  0  0  0  0  0
   16.4900    1.1430   -4.5120 H   0  0  0  0  0  0  0  0  0  0  0  0
   16.4350   -1.2650   -5.0640 H   0  0  0  0  0  0  0  0  0  0  0  0
   15.7130   -2.9380   -3.4000 H   0  0  0  0  0  0  0  0  0  0  0  0
   15.3960   -4.2390    0.4430 H   0  0  0  0  0  0  0  0  0  0  0  0
   14.4430   -5.8350   -1.1690 H   0  0  0  0  0  0  0  0  0  0  0  0
   14.3380   -4.5880   -2.5000 H   0  0  0  0  0  0  0  0  0  0  0  0
   16.8900   -4.1650   -2.3050 H   0  0  0  0  0  0  0  0  0  0  0  0
   16.9890   -5.4090   -0.9810 H   0  0  0  0  0  0  0  0  0  0  0  0
   16.2680   -2.2650    1.0970 H   0  0  0  0  0  0  0  0  0  0  0  0
   13.5410   -1.9560    3.4790 H   0  0  0  0  0  0  0  0  0  0  0  0
   11.2140   -1.2800    1.1610 H   0  0  0  0  0  0  0  0  0  0  0  0
   11.7130   -2.6220    2.3040 H   0  0  0  0  0  0  0  0  0  0  0  0
   11.1220   -3.0380    0.6330 H   0  0  0  0  0  0  0  0  0  0  0  0
   15.4210    0.1780   -0.4340 H   0  0  0  0  0  0  0  0  0  0  0  0
   16.4910    1.9700   -0.0140 H   0  0  0  0  0  0  0  0  0  0  0  0
   15.2510   -2.1880    3.2840 H   0  0  0  0  0  0  0  0  0  0  0  0
  1  2  1  0  0  0  0
  1 26  1  0  0  0  0
  1 27  1  0  0  0  0
  1 28  1  0  0  0  0
  2  3  1  0  0  0  0
  3  4  2  0  0  0  0
  3 25  1  0  0  0  0
  4  5  1  0  0  0  0
  4 29  1  0  0  0  0
  5  6  2  0  0  0  0
  5 30  1  0  0  0  0
  6  7  1  0  0  0  0
  6 31  1  0  0  0  0
  7  8  1  0  0  0  0
  7 25  2  0  0  0  0
  8  9  2  0  0  0  0
  8 24  1  0  0  0  0
  9 10  1  0  0  0  0
  9 32  1  0  0  0  0
 10 11  2  0  0  0  0
 10 33  1  0  0  0  0
 11 12  1  0  0  0  0
 11 34  1  0  0  0  0
 12 24  2  0  0  0  0
 13 12  1  6  0  0  0
 13 14  1  0  0  0  0
 13 17  1  0  0  0  0
 13 22  1  0  0  0  0
 14 15  1  0  0  0  0
 14 16  1  0  0  0  0
 14 35  1  0  0  0  0
 15 16  1  0  0  0  0
 15 36  1  0  0  0  0
 15 37  1  0  0  0  0
 16 38  1  0  0  0  0
 16 39  1  0  0  0  0
 17 18  2  0  0  0  0
 17 40  1  0  0  0  0
 18 19  1  0  0  0  0
 18 20  1  0  0  0  0
 19 41  1  0  0  0  0
 19 47  1  0  0  0  0
 20 21  1  0  0  0  0
 20 22  1  0  0  0  0
 21 42  1  0  0  0  0
 21 43  1  0  0  0  0
 21 44  1  0  0  0  0
 22 23  2  0  0  0  0
 24 45  1  0  0  0  0
 25 46  1  0  0  0  0
M  CHG  1  17   1
M  END
$$$$
