45
 OpenBabel02232411163D
Structure written by MMmdl.
 48 51  0  0  0  0  0  0  0  0999 V2000
    3.7010  -49.8710    5.9760 O   0  0  0  0  0  0  0  0  0  0  0  0
    2.9350  -49.0490    6.5180 C   0  0  0  0  0  0  0  0  0  0  0  0
    3.2580  -48.0150    7.1130 O   0  5  0  0  0  0  0  0  0  0  0  0
    1.4410  -49.4370    6.4260 C   0  0  0  0  0  0  0  0  0  0  0  0
   -0.3070  -50.9120    6.5820 C   0  0  0  0  0  0  0  0  0  0  0  0
   -1.1510  -52.0030    6.8460 C   0  0  0  0  0  0  0  0  0  0  0  0
   -2.4880  -51.8790    6.4920 C   0  0  0  0  0  0  0  0  0  0  0  0
   -2.9710  -50.7110    5.8600 C   0  0  0  0  0  0  0  0  0  0  0  0
   -2.1340  -49.6390    5.5750 C   0  0  0  0  0  0  0  0  0  0  0  0
   -0.7880  -49.6960    5.9720 C   0  0  0  0  0  0  0  0  0  0  0  0
    0.3260  -48.7720    5.9260 C   0  0  0  0  0  0  0  0  0  0  0  0
    0.2090  -47.3620    5.4670 C   0  0  0  0  0  0  0  0  0  0  0  0
   -0.4320  -46.4360    6.5220 C   0  0  0  0  0  0  0  0  0  0  0  0
   -1.9440  -46.6480    6.6160 C   0  0  0  0  0  0  0  0  0  0  0  0
   -2.4340  -45.4900    7.3870 O   0  0  0  0  0  0  0  0  0  0  0  0
   -3.7580  -45.6070    7.7940 C   0  0  0  0  0  0  0  0  0  0  0  0
   -6.3520  -45.6440    8.7680 C   0  0  0  0  0  0  0  0  0  0  0  0
   -5.3370  -46.2830    9.4790 C   0  0  0  0  0  0  0  0  0  0  0  0
   -4.0310  -46.2870    8.9880 C   0  0  0  0  0  0  0  0  0  0  0  0
   -0.7810  -52.9140    7.3160 H   0  0  0  0  0  0  0  0  0  0  0  0
   -3.1850  -52.6910    6.6990 H   0  0  0  0  0  0  0  0  0  0  0  0
   -4.0260  -50.6550    5.5900 H   0  0  0  0  0  0  0  0  0  0  0  0
   -2.5320  -48.7790    5.0390 H   0  0  0  0  0  0  0  0  0  0  0  0
   -0.4270  -47.3330    4.5470 H   0  0  0  0  0  0  0  0  0  0  0  0
    1.2140  -46.9450    5.2140 H   0  0  0  0  0  0  0  0  0  0  0  0
    0.0210  -46.6130    7.5230 H   0  0  0  0  0  0  0  0  0  0  0  0
   -0.2460  -45.3730    6.2440 H   0  0  0  0  0  0  0  0  0  0  0  0
   -2.4490  -46.5890    5.6280 H   0  0  0  0  0  0  0  0  0  0  0  0
   -2.2140  -47.5660    7.1780 H   0  0  0  0  0  0  0  0  0  0  0  0
   -3.2360  -46.7910    9.5350 H   0  0  0  0  0  0  0  0  0  0  0  0
   -6.0870  -45.0290    7.5340 C   0  0  0  0  0  0  0  0  0  0  0  0
   -4.7710  -44.9680    7.0430 C   0  0  0  0  0  0  0  0  0  0  0  0
   -4.4330  -44.2950    5.7420 C   0  0  0  0  0  0  0  0  0  0  0  0
   -5.6180  -43.5850    5.0700 C   0  0  0  0  0  0  0  0  0  0  0  0
   -6.9210  -44.3710    5.2470 C   0  0  0  0  0  0  0  0  0  0  0  0
   -7.2480  -44.4870    6.7430 C   0  0  0  0  0  0  0  0  0  0  0  0
   -5.5790  -46.7950   10.4100 H   0  0  0  0  0  0  0  0  0  0  0  0
   -7.3680  -45.6410    9.1580 H   0  0  0  0  0  0  0  0  0  0  0  0
   -4.0330  -45.0600    5.0320 H   0  0  0  0  0  0  0  0  0  0  0  0
   -3.6380  -43.5340    5.9190 H   0  0  0  0  0  0  0  0  0  0  0  0
   -5.3830  -43.4540    3.9920 H   0  0  0  0  0  0  0  0  0  0  0  0
   -5.7560  -42.5810    5.5280 H   0  0  0  0  0  0  0  0  0  0  0  0
   -6.8160  -45.3900    4.8070 H   0  0  0  0  0  0  0  0  0  0  0  0
   -7.7600  -43.8590    4.7270 H   0  0  0  0  0  0  0  0  0  0  0  0
   -7.5220  -43.4810    7.1430 H   0  0  0  0  0  0  0  0  0  0  0  0
   -8.1290  -45.1640    6.8680 H   0  0  0  0  0  0  0  0  0  0  0  0
    1.0620  -50.7310    6.8390 N   0  0  0  0  0  0  0  0  0  0  0  0
    1.6550  -51.4550    7.2290 H   0  0  0  0  0  0  0  0  0  0  0  0
  1  2  2  0  0  0  0
  2  3  1  0  0  0  0
  2  4  1  0  0  0  0
  4 11  2  0  0  0  0
  4 47  1  0  0  0  0
  5  6  2  0  0  0  0
  5 10  1  0  0  0  0
  5 47  1  0  0  0  0
  6  7  1  0  0  0  0
  6 20  1  0  0  0  0
  7  8  2  0  0  0  0
  7 21  1  0  0  0  0
  8  9  1  0  0  0  0
  8 22  1  0  0  0  0
  9 10  2  0  0  0  0
  9 23  1  0  0  0  0
 10 11  1  0  0  0  0
 11 12  1  0  0  0  0
 12 24  1  0  0  0  0
 12 25  1  0  0  0  0
 12 13  1  0  0  0  0
 13 14  1  0  0  0  0
 13 26  1  0  0  0  0
 13 27  1  0  0  0  0
 14 15  1  0  0  0  0
 14 28  1  0  0  0  0
 14 29  1  0  0  0  0
 15 16  1  0  0  0  0
 16 19  2  0  0  0  0
 16 32  1  0  0  0  0
 17 18  2  0  0  0  0
 17 31  1  0  0  0  0
 17 38  1  0  0  0  0
 18 19  1  0  0  0  0
 18 37  1  0  0  0  0
 19 30  1  0  0  0  0
 31 32  2  0  0  0  0
 31 36  1  0  0  0  0
 32 33  1  0  0  0  0
 33 34  1  0  0  0  0
 33 39  1  0  0  0  0
 33 40  1  0  0  0  0
 34 35  1  0  0  0  0
 34 41  1  0  0  0  0
 34 42  1  0  0  0  0
 35 36  1  0  0  0  0
 35 43  1  0  0  0  0
 35 44  1  0  0  0  0
 36 45  1  0  0  0  0
 36 46  1  0  0  0  0
 47 48  1  0  0  0  0
M  CHG  1   3  -1
M  END
$$$$
