p38a_2h
 OpenBabel02232411163D
Structure written by MMmdl.
 46 49  0  0  0  0  0  0  0  0999 V2000
   34.6640   38.4840   27.2730 C   0  0  0  0  0  0  0  0  0  0  0  0
   33.7090   37.2870   27.2180 C   0  0  0  0  0  0  0  0  0  0  0  0
   31.7670   38.6780   26.9630 C   0  0  0  0  0  0  0  0  0  0  0  0
   32.5690   39.9710   27.1140 C   0  0  0  0  0  0  0  0  0  0  0  0
   37.1370   35.6160   16.1330 C   0  0  0  0  0  0  0  0  0  0  0  0
   32.3850   37.6050   27.7020 O   0  0  0  0  0  0  0  0  0  0  0  0
   34.3030   35.2750   21.6840 C   0  0  0  0  0  0  0  0  0  0  0  0
   35.9650   35.3930   16.8520 C   0  0  0  0  0  0  0  0  0  0  0  0
   34.3170   39.4180   24.2120 C   0  0  0  0  0  0  0  0  0  0  0  0
   34.0720   39.8130   26.7870 C   0  0  0  0  0  0  0  0  0  0  0  0
   34.4060   38.1370   21.7640 C   0  0  0  0  0  0  0  0  0  0  0  0
   34.4250   37.4510   20.5130 C   0  0  0  0  0  0  0  0  0  0  0  0
   38.2660   36.0430   16.8430 C   0  0  0  0  0  0  0  0  0  0  0  0
   38.2090   36.2110   18.2290 C   0  0  0  0  0  0  0  0  0  0  0  0
   37.0220   35.9760   18.9330 C   0  0  0  0  0  0  0  0  0  0  0  0
   34.3840   37.4010   22.9920 C   0  0  0  0  0  0  0  0  0  0  0  0
   34.4070   39.5600   21.8570 C   0  0  0  0  0  0  0  0  0  0  0  0
   34.3770   36.0920   20.4800 C   0  0  0  0  0  0  0  0  0  0  0  0
   35.8830   35.5610   18.2420 C   0  0  0  0  0  0  0  0  0  0  0  0
   34.5430   35.2230   24.2050 C   0  0  0  0  0  0  0  0  0  0  0  0
   34.8710   34.9730   16.2180 F   0  0  0  0  0  0  0  0  0  0  0  0
   34.3210   35.2330   18.9610 S   0  0  0  0  0  0  0  0  0  0  0  0
   34.3530   40.2010   23.0220 N   0  0  0  0  0  0  0  0  0  0  0  0
   34.1550   34.0740   21.7570 O   0  0  0  0  0  0  0  0  0  0  0  0
   34.4080   36.0100   22.9480 N   0  0  0  0  0  0  0  0  0  0  0  0
   34.3220   38.0430   24.2140 N   0  0  0  0  0  0  0  0  0  0  0  0
   34.3510   40.1730   25.3580 N   0  0  0  0  0  0  0  0  0  0  0  0
   34.9890   38.6430   28.3360 H   0  0  0  0  0  0  0  0  0  0  0  0
   35.5820   38.2410   26.6800 H   0  0  0  0  0  0  0  0  0  0  0  0
   33.6120   36.9030   26.1790 H   0  0  0  0  0  0  0  0  0  0  0  0
   34.0370   36.4900   27.9260 H   0  0  0  0  0  0  0  0  0  0  0  0
   30.7700   38.7620   27.4540 H   0  0  0  0  0  0  0  0  0  0  0  0
   31.6770   38.3880   25.8920 H   0  0  0  0  0  0  0  0  0  0  0  0
   32.1240   40.7650   26.4650 H   0  0  0  0  0  0  0  0  0  0  0  0
   32.5020   40.3330   28.1720 H   0  0  0  0  0  0  0  0  0  0  0  0
   37.1790   35.4930   15.0500 H   0  0  0  0  0  0  0  0  0  0  0  0
   34.6220   40.6440   27.3410 H   0  0  0  0  0  0  0  0  0  0  0  0
   34.4910   38.0560   19.5990 H   0  0  0  0  0  0  0  0  0  0  0  0
   39.0980   36.5520   18.7600 H   0  0  0  0  0  0  0  0  0  0  0  0
   37.0010   36.1390   20.0120 H   0  0  0  0  0  0  0  0  0  0  0  0
   34.4450   40.1700   20.9360 H   0  0  0  0  0  0  0  0  0  0  0  0
   35.2370   35.7470   24.9180 H   0  0  0  0  0  0  0  0  0  0  0  0
   33.5410   35.0930   24.6920 H   0  0  0  0  0  0  0  0  0  0  0  0
   34.9720   34.2120   23.9740 H   0  0  0  0  0  0  0  0  0  0  0  0
   34.2380   41.2090   25.2270 H   0  0  0  0  0  0  0  0  0  0  0  0
   39.1900   36.2670   16.3140 H   0  0  0  0  0  0  0  0  0  0  0  0
  1  2  1  0  0  0  0
  1 10  1  0  0  0  0
  1 28  1  0  0  0  0
  1 29  1  0  0  0  0
  2  6  1  0  0  0  0
  2 30  1  0  0  0  0
  2 31  1  0  0  0  0
  3  4  1  0  0  0  0
  3  6  1  0  0  0  0
  3 32  1  0  0  0  0
  3 33  1  0  0  0  0
  4 10  1  0  0  0  0
  4 34  1  0  0  0  0
  4 35  1  0  0  0  0
  5  8  2  0  0  0  0
  5 13  1  0  0  0  0
  5 36  1  0  0  0  0
  7 18  1  0  0  0  0
  7 24  2  0  0  0  0
  7 25  1  0  0  0  0
  8 19  1  0  0  0  0
  8 21  1  0  0  0  0
  9 23  2  0  0  0  0
  9 26  1  0  0  0  0
  9 27  1  0  0  0  0
 10 27  1  0  0  0  0
 10 37  1  0  0  0  0
 11 12  1  0  0  0  0
 11 16  1  0  0  0  0
 11 17  2  0  0  0  0
 12 18  2  0  0  0  0
 12 38  1  0  0  0  0
 13 14  2  0  0  0  0
 13 46  1  0  0  0  0
 14 15  1  0  0  0  0
 14 39  1  0  0  0  0
 15 19  2  0  0  0  0
 15 40  1  0  0  0  0
 16 25  1  0  0  0  0
 16 26  2  0  0  0  0
 17 23  1  0  0  0  0
 17 41  1  0  0  0  0
 18 22  1  0  0  0  0
 19 22  1  0  0  0  0
 20 25  1  0  0  0  0
 20 42  1  0  0  0  0
 20 43  1  0  0  0  0
 20 44  1  0  0  0  0
 27 45  1  0  0  0  0
M  END
$$$$
