p38a_2l
 OpenBabel02232411163D
Structure written by MMmdl.
 49 52  0  0  0  0  0  0  0  0999 V2000
   36.3570   36.0180   15.8270 C   0  0  0  0  0  0  0  0  0  0  0  0
   34.5460   35.0520   21.3870 C   0  0  0  0  0  0  0  0  0  0  0  0
   35.6850   35.5530   16.9530 C   0  0  0  0  0  0  0  0  0  0  0  0
   34.1200   39.1790   23.8760 C   0  0  0  0  0  0  0  0  0  0  0  0
   34.7660   37.9140   21.5100 C   0  0  0  0  0  0  0  0  0  0  0  0
   35.1970   37.2280   20.3220 C   0  0  0  0  0  0  0  0  0  0  0  0
   37.6480   36.5200   16.0340 C   0  0  0  0  0  0  0  0  0  0  0  0
   38.2790   36.5340   17.2810 C   0  0  0  0  0  0  0  0  0  0  0  0
   37.5690   36.0950   18.4040 C   0  0  0  0  0  0  0  0  0  0  0  0
   34.3530   37.1760   22.6590 C   0  0  0  0  0  0  0  0  0  0  0  0
   34.7520   39.3310   21.6170 C   0  0  0  0  0  0  0  0  0  0  0  0
   35.1230   35.8780   20.2900 C   0  0  0  0  0  0  0  0  0  0  0  0
   36.2690   35.6070   18.2360 C   0  0  0  0  0  0  0  0  0  0  0  0
   34.4710   35.0310   16.8450 F   0  0  0  0  0  0  0  0  0  0  0  0
   35.5180   35.0230   19.2630 O   0  0  0  0  0  0  0  0  0  0  0  0
   34.4370   39.9720   22.7500 N   0  0  0  0  0  0  0  0  0  0  0  0
   34.3120   33.8660   21.3140 O   0  0  0  0  0  0  0  0  0  0  0  0
   34.2320   35.7770   22.5910 N   0  0  0  0  0  0  0  0  0  0  0  0
   34.0330   37.8040   23.8390 N   0  0  0  0  0  0  0  0  0  0  0  0
   33.9430   39.8670   25.0560 N   0  0  0  0  0  0  0  0  0  0  0  0
   35.8950   36.0160   14.8370 H   0  0  0  0  0  0  0  0  0  0  0  0
   35.5860   37.8260   19.4940 H   0  0  0  0  0  0  0  0  0  0  0  0
   39.3000   36.9110   17.3870 H   0  0  0  0  0  0  0  0  0  0  0  0
   38.0270   36.1590   19.3940 H   0  0  0  0  0  0  0  0  0  0  0  0
   34.9970   39.9500   20.7390 H   0  0  0  0  0  0  0  0  0  0  0  0
   33.9120   40.9070   25.0150 H   0  0  0  0  0  0  0  0  0  0  0  0
   38.2890   37.0420   14.9910 F   0  0  0  0  0  0  0  0  0  0  0  0
   33.6750   37.7390   28.2600 C   0  0  0  0  0  0  0  0  0  0  0  0
   34.2790   38.2170   26.9330 C   0  0  0  0  0  0  0  0  0  0  0  0
   33.3960   39.3280   26.3370 C   0  0  0  0  0  0  0  0  0  0  0  0
   31.9360   38.8450   26.2020 C   0  0  0  0  0  0  0  0  0  0  0  0
   31.4390   38.3460   27.5650 C   0  0  0  0  0  0  0  0  0  0  0  0
   32.3000   37.3180   28.1050 O   0  0  0  0  0  0  0  0  0  0  0  0
   33.7220   38.5400   29.0340 H   0  0  0  0  0  0  0  0  0  0  0  0
   34.1710   36.8040   28.6110 H   0  0  0  0  0  0  0  0  0  0  0  0
   34.3480   37.3530   26.2260 H   0  0  0  0  0  0  0  0  0  0  0  0
   35.3100   38.6060   27.1100 H   0  0  0  0  0  0  0  0  0  0  0  0
   33.4190   40.2200   27.0360 H   0  0  0  0  0  0  0  0  0  0  0  0
   31.2900   39.6840   25.8520 H   0  0  0  0  0  0  0  0  0  0  0  0
   31.8750   38.0160   25.4570 H   0  0  0  0  0  0  0  0  0  0  0  0
   31.3780   39.1820   28.2990 H   0  0  0  0  0  0  0  0  0  0  0  0
   30.4660   37.8130   27.4710 H   0  0  0  0  0  0  0  0  0  0  0  0
   33.9290   34.9870   23.8340 C   0  0  0  0  0  0  0  0  0  0  0  0
   33.2650   35.6020   24.5030 H   0  0  0  0  0  0  0  0  0  0  0  0
   33.3740   34.0580   23.5310 H   0  0  0  0  0  0  0  0  0  0  0  0
   35.2140   34.6190   24.5750 C   0  0  0  0  0  0  0  0  0  0  0  0
   35.8060   33.8630   24.0180 H   0  0  0  0  0  0  0  0  0  0  0  0
   35.8410   35.5210   24.7560 H   0  0  0  0  0  0  0  0  0  0  0  0
   34.9470   34.1890   25.5730 H   0  0  0  0  0  0  0  0  0  0  0  0
  1  3  2  0  0  0  0
  1  7  1  0  0  0  0
  1 21  1  0  0  0  0
  2 12  1  0  0  0  0
  2 17  2  0  0  0  0
  2 18  1  0  0  0  0
  3 13  1  0  0  0  0
  3 14  1  0  0  0  0
  4 16  2  0  0  0  0
  4 19  1  0  0  0  0
  4 20  1  0  0  0  0
  5  6  1  0  0  0  0
  5 10  1  0  0  0  0
  5 11  2  0  0  0  0
  6 12  2  0  0  0  0
  6 22  1  0  0  0  0
  7  8  2  0  0  0  0
  7 27  1  0  0  0  0
  8  9  1  0  0  0  0
  8 23  1  0  0  0  0
  9 13  2  0  0  0  0
  9 24  1  0  0  0  0
 10 18  1  0  0  0  0
 10 19  2  0  0  0  0
 11 16  1  0  0  0  0
 11 25  1  0  0  0  0
 12 15  1  0  0  0  0
 13 15  1  0  0  0  0
 18 43  1  0  0  0  0
 20 26  1  0  0  0  0
 20 30  1  0  0  0  0
 28 29  1  0  0  0  0
 28 33  1  0  0  0  0
 28 34  1  0  0  0  0
 28 35  1  0  0  0  0
 29 30  1  0  0  0  0
 29 36  1  0  0  0  0
 29 37  1  0  0  0  0
 30 31  1  0  0  0  0
 30 38  1  0  0  0  0
 31 32  1  0  0  0  0
 31 39  1  0  0  0  0
 31 40  1  0  0  0  0
 32 33  1  0  0  0  0
 32 41  1  0  0  0  0
 32 42  1  0  0  0  0
 43 44  1  0  0  0  0
 43 45  1  0  0  0  0
 43 46  1  0  0  0  0
 46 47  1  0  0  0  0
 46 48  1  0  0  0  0
 46 49  1  0  0  0  0
M  END
$$$$
