p38a_2bb
 OpenBabel02232411163D
Structure written by MMmdl.
 44 46  0  0  0  0  0  0  0  0999 V2000
   38.2820   36.5290   17.1980 C   0  0  0  0  0  0  0  0  0  0  0  0
   34.3270   35.0890   21.1800 C   0  0  0  0  0  0  0  0  0  0  0  0
   37.5030   36.0810   18.2620 C   0  0  0  0  0  0  0  0  0  0  0  0
   33.6620   39.1300   23.7440 C   0  0  0  0  0  0  0  0  0  0  0  0
   32.3440   39.1340   25.8820 C   0  0  0  0  0  0  0  0  0  0  0  0
   34.5530   37.9530   21.4170 C   0  0  0  0  0  0  0  0  0  0  0  0
   35.0650   37.3000   20.2400 C   0  0  0  0  0  0  0  0  0  0  0  0
   37.6290   36.6750   15.9660 C   0  0  0  0  0  0  0  0  0  0  0  0
   36.2790   36.3720   15.7690 C   0  0  0  0  0  0  0  0  0  0  0  0
   35.5210   35.9130   16.8520 C   0  0  0  0  0  0  0  0  0  0  0  0
   33.9290   37.1880   22.4480 C   0  0  0  0  0  0  0  0  0  0  0  0
   34.6450   39.3520   21.6260 C   0  0  0  0  0  0  0  0  0  0  0  0
   34.9750   35.9540   20.1530 C   0  0  0  0  0  0  0  0  0  0  0  0
   36.1400   35.7580   18.0950 C   0  0  0  0  0  0  0  0  0  0  0  0
   33.0700   35.0380   23.3710 C   0  0  0  0  0  0  0  0  0  0  0  0
   38.0410   35.9530   19.4670 F   0  0  0  0  0  0  0  0  0  0  0  0
   35.4350   35.1300   19.1310 O   0  0  0  0  0  0  0  0  0  0  0  0
   34.2270   39.9500   22.7550 N   0  0  0  0  0  0  0  0  0  0  0  0
   34.2320   33.8830   21.1220 O   0  0  0  0  0  0  0  0  0  0  0  0
   33.7950   35.7980   22.3130 N   0  0  0  0  0  0  0  0  0  0  0  0
   33.4610   37.7770   23.5990 N   0  0  0  0  0  0  0  0  0  0  0  0
   33.3760   39.7240   24.9720 N   0  0  0  0  0  0  0  0  0  0  0  0
   39.3360   36.7910   17.3250 H   0  0  0  0  0  0  0  0  0  0  0  0
   32.4510   38.0140   25.8890 H   0  0  0  0  0  0  0  0  0  0  0  0
   35.5150   37.9220   19.4630 H   0  0  0  0  0  0  0  0  0  0  0  0
   35.8050   36.5030   14.7930 H   0  0  0  0  0  0  0  0  0  0  0  0
   34.4560   35.6950   16.7190 H   0  0  0  0  0  0  0  0  0  0  0  0
   35.0650   40.0010   20.8420 H   0  0  0  0  0  0  0  0  0  0  0  0
   33.5250   35.2480   24.3780 H   0  0  0  0  0  0  0  0  0  0  0  0
   31.9940   35.3620   23.3950 H   0  0  0  0  0  0  0  0  0  0  0  0
   33.1230   33.9380   23.1650 H   0  0  0  0  0  0  0  0  0  0  0  0
   33.4320   40.7630   25.0220 H   0  0  0  0  0  0  0  0  0  0  0  0
   38.3220   37.1660   14.9420 F   0  0  0  0  0  0  0  0  0  0  0  0
   32.4880   39.7070   27.2960 C   0  0  0  0  0  0  0  0  0  0  0  0
   31.3170   39.3940   25.4930 H   0  0  0  0  0  0  0  0  0  0  0  0
   32.5170   40.8300   27.2390 H   0  0  0  0  0  0  0  0  0  0  0  0
   31.5400   39.4430   27.8450 H   0  0  0  0  0  0  0  0  0  0  0  0
   35.2820   39.7280   27.4270 C   0  0  0  0  0  0  0  0  0  0  0  0
   33.8690   39.1210   28.2310 S   0  0  0  0  0  0  0  0  0  0  0  0
   33.7880   39.6700   29.6110 O   0  0  0  0  0  0  0  0  0  0  0  0
   33.8890   37.6410   28.2860 O   0  0  0  0  0  0  0  0  0  0  0  0
   35.4780   39.1900   26.4610 H   0  0  0  0  0  0  0  0  0  0  0  0
   35.1650   40.8150   27.1580 H   0  0  0  0  0  0  0  0  0  0  0  0
   36.2020   39.6500   28.0580 H   0  0  0  0  0  0  0  0  0  0  0  0
  1  3  2  0  0  0  0
  1  8  1  0  0  0  0
  1 23  1  0  0  0  0
  2 13  1  0  0  0  0
  2 19  2  0  0  0  0
  2 20  1  0  0  0  0
  3 14  1  0  0  0  0
  3 16  1  0  0  0  0
  4 18  2  0  0  0  0
  4 21  1  0  0  0  0
  4 22  1  0  0  0  0
  5 22  1  0  0  0  0
  5 24  1  0  0  0  0
  5 34  1  0  0  0  0
  5 35  1  0  0  0  0
  6  7  1  0  0  0  0
  6 11  1  0  0  0  0
  6 12  2  0  0  0  0
  7 13  2  0  0  0  0
  7 25  1  0  0  0  0
  8  9  2  0  0  0  0
  8 33  1  0  0  0  0
  9 10  1  0  0  0  0
  9 26  1  0  0  0  0
 10 14  2  0  0  0  0
 10 27  1  0  0  0  0
 11 20  1  0  0  0  0
 11 21  2  0  0  0  0
 12 18  1  0  0  0  0
 12 28  1  0  0  0  0
 13 17  1  0  0  0  0
 14 17  1  0  0  0  0
 15 20  1  0  0  0  0
 15 29  1  0  0  0  0
 15 30  1  0  0  0  0
 15 31  1  0  0  0  0
 22 32  1  0  0  0  0
 34 36  1  0  0  0  0
 34 37  1  0  0  0  0
 34 39  1  0  0  0  0
 38 39  1  0  0  0  0
 38 42  1  0  0  0  0
 38 43  1  0  0  0  0
 38 44  1  0  0  0  0
 39 40  2  0  0  0  0
 39 41  2  0  0  0  0
M  END
$$$$
