p38a_2o
 OpenBabel02232411163D
Structure written by MMmdl.
 55 58  0  0  0  0  0  0  0  0999 V2000
   38.2730   36.5340   17.1690 C   0  0  0  0  0  0  0  0  0  0  0  0
   34.5480   35.0850   21.2560 C   0  0  0  0  0  0  0  0  0  0  0  0
   37.4920   36.0850   18.2310 C   0  0  0  0  0  0  0  0  0  0  0  0
   34.0000   39.1510   23.8290 C   0  0  0  0  0  0  0  0  0  0  0  0
   34.6600   37.9640   21.4250 C   0  0  0  0  0  0  0  0  0  0  0  0
   35.0530   37.3120   20.2050 C   0  0  0  0  0  0  0  0  0  0  0  0
   37.6200   36.6900   15.9390 C   0  0  0  0  0  0  0  0  0  0  0  0
   36.2690   36.3970   15.7400 C   0  0  0  0  0  0  0  0  0  0  0  0
   35.5090   35.9360   16.8210 C   0  0  0  0  0  0  0  0  0  0  0  0
   34.2700   37.1850   22.5530 C   0  0  0  0  0  0  0  0  0  0  0  0
   34.6520   39.3750   21.5890 C   0  0  0  0  0  0  0  0  0  0  0  0
   35.0310   35.9610   20.1540 C   0  0  0  0  0  0  0  0  0  0  0  0
   36.1280   35.7700   18.0630 C   0  0  0  0  0  0  0  0  0  0  0  0
   38.0310   35.9500   19.4360 F   0  0  0  0  0  0  0  0  0  0  0  0
   35.4110   35.1440   19.0920 O   0  0  0  0  0  0  0  0  0  0  0  0
   34.3450   39.9830   22.7460 N   0  0  0  0  0  0  0  0  0  0  0  0
   34.4410   33.8800   21.2000 O   0  0  0  0  0  0  0  0  0  0  0  0
   34.2180   35.7800   22.4750 N   0  0  0  0  0  0  0  0  0  0  0  0
   33.9510   37.7710   23.7490 N   0  0  0  0  0  0  0  0  0  0  0  0
   33.6700   39.7360   25.0270 N   0  0  0  0  0  0  0  0  0  0  0  0
   39.3280   36.7900   17.2980 H   0  0  0  0  0  0  0  0  0  0  0  0
   35.3670   37.9360   19.3650 H   0  0  0  0  0  0  0  0  0  0  0  0
   35.7940   36.5370   14.7670 H   0  0  0  0  0  0  0  0  0  0  0  0
   34.4430   35.7240   16.6880 H   0  0  0  0  0  0  0  0  0  0  0  0
   34.9020   40.0250   20.7330 H   0  0  0  0  0  0  0  0  0  0  0  0
   33.7330   40.7620   25.1470 H   0  0  0  0  0  0  0  0  0  0  0  0
   38.3170   37.1800   14.9160 F   0  0  0  0  0  0  0  0  0  0  0  0
   33.2180   40.6270   28.1400 C   0  0  0  0  0  0  0  0  0  0  0  0
   32.4100   39.7530   27.1710 C   0  0  0  0  0  0  0  0  0  0  0  0
   33.2770   38.9090   26.2150 C   0  0  0  0  0  0  0  0  0  0  0  0
   34.5120   38.3200   26.9280 C   0  0  0  0  0  0  0  0  0  0  0  0
   35.2220   39.3510   27.8040 C   0  0  0  0  0  0  0  0  0  0  0  0
   34.3020   39.9150   28.7700 O   0  0  0  0  0  0  0  0  0  0  0  0
   32.5930   40.9370   29.0080 H   0  0  0  0  0  0  0  0  0  0  0  0
   33.6400   41.5100   27.6110 H   0  0  0  0  0  0  0  0  0  0  0  0
   31.7300   40.4120   26.5750 H   0  0  0  0  0  0  0  0  0  0  0  0
   31.7690   39.0430   27.7530 H   0  0  0  0  0  0  0  0  0  0  0  0
   32.6400   38.0580   25.8320 H   0  0  0  0  0  0  0  0  0  0  0  0
   34.1570   37.4650   27.5590 H   0  0  0  0  0  0  0  0  0  0  0  0
   35.2260   37.9080   26.1740 H   0  0  0  0  0  0  0  0  0  0  0  0
   35.9890   38.8770   28.4570 H   0  0  0  0  0  0  0  0  0  0  0  0
   35.6480   40.1760   27.1890 H   0  0  0  0  0  0  0  0  0  0  0  0
   33.7270   34.9930   23.6640 C   0  0  0  0  0  0  0  0  0  0  0  0
   34.1330   33.9490   23.5670 H   0  0  0  0  0  0  0  0  0  0  0  0
   34.1420   35.4820   24.5930 H   0  0  0  0  0  0  0  0  0  0  0  0
   32.1980   34.9870   23.7110 C   0  0  0  0  0  0  0  0  0  0  0  0
   31.8420   36.0590   23.7480 H   0  0  0  0  0  0  0  0  0  0  0  0
   31.7830   34.5730   22.7520 H   0  0  0  0  0  0  0  0  0  0  0  0
   31.5020   34.1030   25.0800 S   0  0  0  0  0  0  0  0  0  0  0  0
   32.5380   33.7170   26.0620 O   0  0  0  0  0  0  0  0  0  0  0  0
   30.8070   32.8930   24.5820 O   0  0  0  0  0  0  0  0  0  0  0  0
   30.3720   35.2260   25.7610 C   0  0  0  0  0  0  0  0  0  0  0  0
   29.6190   35.5880   25.0120 H   0  0  0  0  0  0  0  0  0  0  0  0
   29.7790   34.8010   26.6140 H   0  0  0  0  0  0  0  0  0  0  0  0
   30.8690   36.1410   26.1790 H   0  0  0  0  0  0  0  0  0  0  0  0
  1  3  2  0  0  0  0
  1  7  1  0  0  0  0
  1 21  1  0  0  0  0
  2 12  1  0  0  0  0
  2 17  2  0  0  0  0
  2 18  1  0  0  0  0
  3 13  1  0  0  0  0
  3 14  1  0  0  0  0
  4 16  2  0  0  0  0
  4 19  1  0  0  0  0
  4 20  1  0  0  0  0
  5  6  1  0  0  0  0
  5 10  1  0  0  0  0
  5 11  2  0  0  0  0
  6 12  2  0  0  0  0
  6 22  1  0  0  0  0
  7  8  2  0  0  0  0
  7 27  1  0  0  0  0
  8  9  1  0  0  0  0
  8 23  1  0  0  0  0
  9 13  2  0  0  0  0
  9 24  1  0  0  0  0
 10 18  1  0  0  0  0
 10 19  2  0  0  0  0
 11 16  1  0  0  0  0
 11 25  1  0  0  0  0
 12 15  1  0  0  0  0
 13 15  1  0  0  0  0
 18 43  1  0  0  0  0
 20 26  1  0  0  0  0
 20 30  1  0  0  0  0
 28 29  1  0  0  0  0
 28 33  1  0  0  0  0
 28 34  1  0  0  0  0
 28 35  1  0  0  0  0
 29 30  1  0  0  0  0
 29 36  1  0  0  0  0
 29 37  1  0  0  0  0
 30 31  1  0  0  0  0
 30 38  1  0  0  0  0
 31 32  1  0  0  0  0
 31 39  1  0  0  0  0
 31 40  1  0  0  0  0
 32 33  1  0  0  0  0
 32 41  1  0  0  0  0
 32 42  1  0  0  0  0
 43 44  1  0  0  0  0
 43 45  1  0  0  0  0
 43 46  1  0  0  0  0
 46 47  1  0  0  0  0
 46 48  1  0  0  0  0
 46 49  1  0  0  0  0
 49 50  2  0  0  0  0
 49 51  2  0  0  0  0
 49 52  1  0  0  0  0
 52 53  1  0  0  0  0
 52 54  1  0  0  0  0
 52 55  1  0  0  0  0
M  END
$$$$
