p38a_3flw
 OpenBabel02232411163D
Structure written by MMmdl.
 49 51  0  0  0  0  0  0  0  0999 V2000
   38.2420   36.5260   17.1520 C   0  0  0  0  0  0  0  0  0  0  0  0
   37.6150   36.7080   15.9110 C   0  0  0  0  0  0  0  0  0  0  0  0
   32.1230   38.7640   25.8460 C   0  0  0  0  0  0  0  0  0  0  0  0
   31.3900   39.6660   24.8460 C   0  0  0  0  0  0  0  0  0  0  0  0
   34.4150   38.2270   26.8790 C   0  0  0  0  0  0  0  0  0  0  0  0
   34.2550   35.0550   23.7440 C   0  0  0  0  0  0  0  0  0  0  0  0
   37.9510   35.9080   19.4030 F   0  0  0  0  0  0  0  0  0  0  0  0
   37.4380   36.0660   18.1900 C   0  0  0  0  0  0  0  0  0  0  0  0
   38.3340   37.2100   14.9110 F   0  0  0  0  0  0  0  0  0  0  0  0
   36.2660   36.4270   15.6820 C   0  0  0  0  0  0  0  0  0  0  0  0
   35.4810   35.9530   16.7390 C   0  0  0  0  0  0  0  0  0  0  0  0
   36.0730   35.7660   17.9910 C   0  0  0  0  0  0  0  0  0  0  0  0
   35.3160   35.1570   19.0030 O   0  0  0  0  0  0  0  0  0  0  0  0
   35.0260   35.9720   20.0960 C   0  0  0  0  0  0  0  0  0  0  0  0
   35.0540   37.3240   20.1300 C   0  0  0  0  0  0  0  0  0  0  0  0
   34.7820   37.9890   21.3730 C   0  0  0  0  0  0  0  0  0  0  0  0
   34.7510   39.4030   21.5030 C   0  0  0  0  0  0  0  0  0  0  0  0
   34.5470   40.0200   22.6750 N   0  0  0  0  0  0  0  0  0  0  0  0
   34.6350   35.1160   21.2470 C   0  0  0  0  0  0  0  0  0  0  0  0
   34.4400   33.9210   21.2040 O   0  0  0  0  0  0  0  0  0  0  0  0
   34.4820   35.8260   22.4900 N   0  0  0  0  0  0  0  0  0  0  0  0
   34.5470   37.2270   22.5570 C   0  0  0  0  0  0  0  0  0  0  0  0
   34.3540   37.8320   23.7750 N   0  0  0  0  0  0  0  0  0  0  0  0
   34.3730   39.2060   23.8120 C   0  0  0  0  0  0  0  0  0  0  0  0
   34.2560   39.8730   25.0250 N   0  0  0  0  0  0  0  0  0  0  0  0
   33.5300   39.2950   26.2070 C   0  0  0  0  0  0  0  0  0  0  0  0
   34.0060   37.9220   28.3230 C   0  0  0  0  0  0  0  0  0  0  0  0
   34.1340   39.0610   29.1960 O   0  0  0  0  0  0  0  0  0  0  0  0
   30.0590   39.1590   24.6400 O   0  0  0  0  0  0  0  0  0  0  0  0
   39.2980   36.7700   17.3040 H   0  0  0  0  0  0  0  0  0  0  0  0
   31.5260   38.6950   26.7880 H   0  0  0  0  0  0  0  0  0  0  0  0
   32.2030   37.7320   25.4260 H   0  0  0  0  0  0  0  0  0  0  0  0
   31.3490   40.7150   25.2120 H   0  0  0  0  0  0  0  0  0  0  0  0
   31.8370   39.6010   23.8300 H   0  0  0  0  0  0  0  0  0  0  0  0
   34.3690   37.2700   26.2960 H   0  0  0  0  0  0  0  0  0  0  0  0
   35.4760   38.5790   26.8560 H   0  0  0  0  0  0  0  0  0  0  0  0
   35.0640   35.2850   24.4890 H   0  0  0  0  0  0  0  0  0  0  0  0
   33.2690   35.3430   24.1990 H   0  0  0  0  0  0  0  0  0  0  0  0
   34.2540   33.9550   23.5290 H   0  0  0  0  0  0  0  0  0  0  0  0
   35.8120   36.5900   14.7030 H   0  0  0  0  0  0  0  0  0  0  0  0
   34.4170   35.7500   16.5790 H   0  0  0  0  0  0  0  0  0  0  0  0
   35.2910   37.9370   19.2570 H   0  0  0  0  0  0  0  0  0  0  0  0
   34.8760   40.0390   20.6120 H   0  0  0  0  0  0  0  0  0  0  0  0
   34.1430   40.9090   24.9790 H   0  0  0  0  0  0  0  0  0  0  0  0
   33.4160   40.1660   26.9180 H   0  0  0  0  0  0  0  0  0  0  0  0
   32.9240   37.6660   28.4070 H   0  0  0  0  0  0  0  0  0  0  0  0
   34.6430   37.1000   28.7290 H   0  0  0  0  0  0  0  0  0  0  0  0
   35.0300   39.4640   29.0830 H   0  0  0  0  0  0  0  0  0  0  0  0
   29.4140   39.8020   25.0410 H   0  0  0  0  0  0  0  0  0  0  0  0
  1  2  2  0  0  0  0
  1  8  1  0  0  0  0
  1 30  1  0  0  0  0
  2  9  1  0  0  0  0
  2 10  1  0  0  0  0
  3  4  1  0  0  0  0
  3 26  1  0  0  0  0
  3 31  1  0  0  0  0
  3 32  1  0  0  0  0
  4 29  1  0  0  0  0
  4 33  1  0  0  0  0
  4 34  1  0  0  0  0
  5 26  1  0  0  0  0
  5 27  1  0  0  0  0
  5 35  1  0  0  0  0
  5 36  1  0  0  0  0
  6 21  1  0  0  0  0
  6 37  1  0  0  0  0
  6 38  1  0  0  0  0
  6 39  1  0  0  0  0
  7  8  1  0  0  0  0
  8 12  2  0  0  0  0
 10 11  2  0  0  0  0
 10 40  1  0  0  0  0
 11 12  1  0  0  0  0
 11 41  1  0  0  0  0
 12 13  1  0  0  0  0
 13 14  1  0  0  0  0
 14 15  2  0  0  0  0
 14 19  1  0  0  0  0
 15 16  1  0  0  0  0
 15 42  1  0  0  0  0
 16 17  2  0  0  0  0
 16 22  1  0  0  0  0
 17 18  1  0  0  0  0
 17 43  1  0  0  0  0
 18 24  2  0  0  0  0
 19 20  2  0  0  0  0
 19 21  1  0  0  0  0
 21 22  1  0  0  0  0
 22 23  2  0  0  0  0
 23 24  1  0  0  0  0
 24 25  1  0  0  0  0
 25 26  1  0  0  0  0
 25 44  1  0  0  0  0
 26 45  1  0  0  0  0
 27 28  1  0  0  0  0
 27 46  1  0  0  0  0
 27 47  1  0  0  0  0
 28 48  1  0  0  0  0
 29 49  1  0  0  0  0
M  END
$$$$
