27
 OpenBabel02232411163D
Structure written by MMmdl.
 38 40  0  0  0  0  0  0  0  0999 V2000
    3.3870  -48.2110    7.1160 O   0  0  0  0  0  0  0  0  0  0  0  0
    3.0040  -49.2090    6.4910 C   0  0  0  0  0  0  0  0  0  0  0  0
    3.7240  -50.0580    5.9280 O   0  5  0  0  0  0  0  0  0  0  0  0
    1.4900  -49.4840    6.3950 C   0  0  0  0  0  0  0  0  0  0  0  0
   -0.3840  -50.7930    6.5390 C   0  0  0  0  0  0  0  0  0  0  0  0
   -1.3200  -51.8180    6.7580 C   0  0  0  0  0  0  0  0  0  0  0  0
   -2.6440  -51.5530    6.4440 C   0  0  0  0  0  0  0  0  0  0  0  0
   -3.0380  -50.2990    5.9190 C   0  0  0  0  0  0  0  0  0  0  0  0
   -2.1190  -49.2810    5.7030 C   0  0  0  0  0  0  0  0  0  0  0  0
   -0.7680  -49.5040    6.0180 C   0  0  0  0  0  0  0  0  0  0  0  0
    0.4320  -48.6970    5.9540 C   0  0  0  0  0  0  0  0  0  0  0  0
    0.4470  -47.2810    5.5000 C   0  0  0  0  0  0  0  0  0  0  0  0
    0.3360  -46.2760    6.6610 C   0  0  0  0  0  0  0  0  0  0  0  0
   -0.9940  -46.3330    7.4100 C   0  0  0  0  0  0  0  0  0  0  0  0
   -1.9650  -45.7610    6.4570 O   0  0  0  0  0  0  0  0  0  0  0  0
   -3.2200  -45.4650    6.9040 C   0  0  0  0  0  0  0  0  0  0  0  0
   -3.7700  -45.8910    8.1240 C   0  0  0  0  0  0  0  0  0  0  0  0
   -5.0730  -45.4990    8.4450 C   0  0  0  0  0  0  0  0  0  0  0  0
   -5.8170  -44.6980    7.5750 C   0  0  0  0  0  0  0  0  0  0  0  0
   -5.2590  -44.2930    6.3530 C   0  0  0  0  0  0  0  0  0  0  0  0
   -3.9680  -44.6690    6.0030 C   0  0  0  0  0  0  0  0  0  0  0  0
   -1.0240  -52.7860    7.1640 H   0  0  0  0  0  0  0  0  0  0  0  0
   -3.4050  -52.3170    6.6040 H   0  0  0  0  0  0  0  0  0  0  0  0
   -4.0910  -50.1400    5.6830 H   0  0  0  0  0  0  0  0  0  0  0  0
   -2.4500  -48.3240    5.2980 H   0  0  0  0  0  0  0  0  0  0  0  0
   -0.4240  -47.1130    4.8150 H   0  0  0  0  0  0  0  0  0  0  0  0
    1.3870  -47.0580    4.9380 H   0  0  0  0  0  0  0  0  0  0  0  0
    0.4520  -45.2430    6.2530 H   0  0  0  0  0  0  0  0  0  0  0  0
    1.1500  -46.4750    7.4000 H   0  0  0  0  0  0  0  0  0  0  0  0
   -0.9870  -45.6760    8.3060 H   0  0  0  0  0  0  0  0  0  0  0  0
   -1.3300  -47.3680    7.6300 H   0  0  0  0  0  0  0  0  0  0  0  0
   -3.2250  -46.5280    8.8160 H   0  0  0  0  0  0  0  0  0  0  0  0
   -3.5380  -44.3640    5.0530 H   0  0  0  0  0  0  0  0  0  0  0  0
    1.0020  -50.7550    6.7610 N   0  0  0  0  0  0  0  0  0  0  0  0
    1.5330  -51.5440    7.1090 H   0  0  0  0  0  0  0  0  0  0  0  0
   -5.8500  -43.6780    5.6710 H   0  0  0  0  0  0  0  0  0  0  0  0
   -6.8300  -44.3980    7.8360 H   0  0  0  0  0  0  0  0  0  0  0  0
   -5.5200  -45.8250    9.3870 H   0  0  0  0  0  0  0  0  0  0  0  0
  1  2  2  0  0  0  0
  2  3  1  0  0  0  0
  2  4  1  0  0  0  0
  4 11  2  0  0  0  0
  4 34  1  0  0  0  0
  5  6  2  0  0  0  0
  5 10  1  0  0  0  0
  5 34  1  0  0  0  0
  6  7  1  0  0  0  0
  6 22  1  0  0  0  0
  7  8  2  0  0  0  0
  7 23  1  0  0  0  0
  8  9  1  0  0  0  0
  8 24  1  0  0  0  0
  9 10  2  0  0  0  0
  9 25  1  0  0  0  0
 10 11  1  0  0  0  0
 11 12  1  0  0  0  0
 12 26  1  0  0  0  0
 12 27  1  0  0  0  0
 12 13  1  0  0  0  0
 13 14  1  0  0  0  0
 13 28  1  0  0  0  0
 13 29  1  0  0  0  0
 14 15  1  0  0  0  0
 14 30  1  0  0  0  0
 14 31  1  0  0  0  0
 15 16  1  0  0  0  0
 16 17  2  0  0  0  0
 16 21  1  0  0  0  0
 17 18  1  0  0  0  0
 17 32  1  0  0  0  0
 18 19  2  0  0  0  0
 18 38  1  0  0  0  0
 19 20  1  0  0  0  0
 19 37  1  0  0  0  0
 20 21  2  0  0  0  0
 20 36  1  0  0  0  0
 21 33  1  0  0  0  0
 34 35  1  0  0  0  0
M  CHG  1   3  -1
M  END
$$$$
