2h
                    3D
 Schrodinger Suite 2022-3.
 46 49  0  0  1  0  0  0  0  0999 V2000
   27.0940    8.8770   30.4900 C   0  0  0  0  0  0  0  0  0  0  0  0
   28.4570    9.4510   30.8940 C   0  0  0  0  0  0  0  0  0  0  0  0
   28.5060    8.1270   32.9190 C   0  0  0  0  0  0  0  0  0  0  0  0
   27.1540    7.4800   32.5940 C   0  0  0  0  0  0  0  0  0  0  0  0
   15.8200   10.4340   31.7680 C   0  0  0  0  0  0  0  0  0  0  0  0
   29.2060    8.5320   31.7220 O   0  0  0  0  0  0  0  0  0  0  0  0
   21.4480   12.6640   31.3210 C   0  0  0  0  0  0  0  0  0  0  0  0
   17.0590   11.0750   31.7490 C   0  0  0  0  0  0  0  0  0  0  0  0
   23.8850    8.4930   31.1030 C   0  0  0  0  0  0  0  0  0  0  0  0
   26.3090    8.4600   31.7530 C   0  0  0  0  0  0  0  0  0  0  0  0
   21.5030    9.8470   30.7560 C   0  0  0  0  0  0  0  0  0  0  0  0
   20.2780   10.5840   30.6390 C   0  0  0  0  0  0  0  0  0  0  0  0
   14.9900   10.5790   30.6520 C   0  0  0  0  0  0  0  0  0  0  0  0
   15.4090   11.3360   29.5540 C   0  0  0  0  0  0  0  0  0  0  0  0
   16.6360   12.0100   29.5740 C   0  0  0  0  0  0  0  0  0  0  0  0
   22.6780   10.5100   31.2280 C   0  0  0  0  0  0  0  0  0  0  0  0
   21.6380    8.4690   30.4210 C   0  0  0  0  0  0  0  0  0  0  0  0
   20.2540   11.9090   30.9300 C   0  0  0  0  0  0  0  0  0  0  0  0
   17.4620   11.9020   30.6960 C   0  0  0  0  0  0  0  0  0  0  0  0
   23.8860   12.5370   32.0150 C   0  0  0  0  0  0  0  0  0  0  0  0
   17.9080   10.8940   32.7570 F   0  0  0  0  0  0  0  0  0  0  0  0
   18.8500   12.9510   30.8330 S   0  0  0  0  0  0  0  0  0  0  0  0
   22.7800    7.7870   30.5760 N   0  0  0  0  0  0  0  0  0  0  0  0
   21.5350   13.8640   31.4970 O   0  0  0  0  0  0  0  0  0  0  0  0
   22.6460   11.8740   31.5200 N   0  0  0  0  0  0  0  0  0  0  0  0
   23.8660    9.8410   31.3920 N   0  0  0  0  0  0  0  0  0  0  0  0
   25.0270    7.7820   31.3890 N   0  0  0  0  0  0  0  0  0  0  0  0
   14.7850   11.3950   28.6640 H   0  0  0  0  0  0  0  0  0  0  0  0
   16.9360   12.6060   28.7070 H   0  0  0  0  0  0  0  0  0  0  0  0
   15.5160    9.8180   32.6110 H   0  0  0  0  0  0  0  0  0  0  0  0
   19.3880   10.0380   30.3070 H   0  0  0  0  0  0  0  0  0  0  0  0
   20.7790    7.9140   30.0050 H   0  0  0  0  0  0  0  0  0  0  0  0
   27.2330    7.9870   29.8340 H   0  0  0  0  0  0  0  0  0  0  0  0
   26.5270    9.6530   29.9220 H   0  0  0  0  0  0  0  0  0  0  0  0
   28.3370   10.4130   31.4440 H   0  0  0  0  0  0  0  0  0  0  0  0
   29.1290    9.5680   30.0140 H   0  0  0  0  0  0  0  0  0  0  0  0
   29.2090    7.3860   33.3650 H   0  0  0  0  0  0  0  0  0  0  0  0
   28.3750    9.0150   33.5790 H   0  0  0  0  0  0  0  0  0  0  0  0
   26.6210    7.2290   33.5430 H   0  0  0  0  0  0  0  0  0  0  0  0
   27.3170    6.5310   32.0270 H   0  0  0  0  0  0  0  0  0  0  0  0
   26.0740    9.3710   32.3710 H   0  0  0  0  0  0  0  0  0  0  0  0
   23.6650   13.5910   32.3230 H   0  0  0  0  0  0  0  0  0  0  0  0
   24.2960   11.9730   32.8970 H   0  0  0  0  0  0  0  0  0  0  0  0
   24.6680   12.5430   31.2080 H   0  0  0  0  0  0  0  0  0  0  0  0
   25.1290    6.8130   31.0250 H   0  0  0  0  0  0  0  0  0  0  0  0
   14.0190   10.0810   30.6260 H   0  0  0  0  0  0  0  0  0  0  0  0
  1  2  1  0  0  0  0
  1 10  1  0  0  0  0
  1 33  1  0  0  0  0
  1 34  1  0  0  0  0
  2  6  1  0  0  0  0
  2 35  1  0  0  0  0
  2 36  1  0  0  0  0
  3  4  1  0  0  0  0
  3  6  1  0  0  0  0
  3 37  1  0  0  0  0
  3 38  1  0  0  0  0
  4 10  1  0  0  0  0
  4 39  1  0  0  0  0
  4 40  1  0  0  0  0
  5  8  1  0  0  0  0
  5 13  2  0  0  0  0
  5 30  1  0  0  0  0
  7 18  1  0  0  0  0
  7 24  2  0  0  0  0
  7 25  1  0  0  0  0
  8 19  2  0  0  0  0
  8 21  1  0  0  0  0
  9 23  1  0  0  0  0
  9 26  2  0  0  0  0
  9 27  1  0  0  0  0
 10 27  1  0  0  0  0
 10 41  1  0  0  0  0
 11 12  1  0  0  0  0
 11 16  2  0  0  0  0
 11 17  1  0  0  0  0
 12 18  2  0  0  0  0
 12 31  1  0  0  0  0
 13 14  1  0  0  0  0
 13 46  1  0  0  0  0
 14 15  2  0  0  0  0
 14 28  1  0  0  0  0
 15 19  1  0  0  0  0
 15 29  1  0  0  0  0
 16 25  1  0  0  0  0
 16 26  1  0  0  0  0
 17 23  2  0  0  0  0
 17 32  1  0  0  0  0
 18 22  1  0  0  0  0
 19 22  1  0  0  0  0
 20 25  1  0  0  0  0
 20 42  1  0  0  0  0
 20 43  1  0  0  0  0
 20 44  1  0  0  0  0
 27 45  1  0  0  0  0
M  END
$$$$
