18638-1
 OpenBabel02232411163D
Structure written by MMmdl.
 52 53  0  0  0  0  0  0  0  0999 V2000
   23.9650   12.4640   30.3080 C   0  0  0  0  0  0  0  0  0  0  0  0
   23.5260   11.0180   30.4420 C   0  0  0  0  0  0  0  0  0  0  0  0
   22.2730   11.1230   31.2330 O   0  0  0  0  0  0  0  0  0  0  0  0
   21.6400    9.9890   31.5950 C   0  0  0  0  0  0  0  0  0  0  0  0
   22.1180    8.7920   31.1720 N   0  0  0  0  0  0  0  0  0  0  0  0
   21.3870    7.6640   31.5100 C   0  0  0  0  0  0  0  0  0  0  0  0
   20.2280    7.7200   32.2790 C   0  0  0  0  0  0  0  0  0  0  0  0
   19.7390    8.9770   32.7230 C   0  0  0  0  0  0  0  0  0  0  0  0
   18.5770    9.0360   33.4510 N   0  0  0  0  0  0  0  0  0  0  0  0
   20.4620   10.1640   32.3800 C   0  0  0  0  0  0  0  0  0  0  0  0
   20.0610   11.4670   32.7440 C   0  0  0  0  0  0  0  0  0  0  0  0
   19.7770   12.5600   33.0090 N   0  0  0  0  0  0  0  0  0  0  0  0
   21.9360    6.4750   30.9650 N   0  0  0  0  0  0  0  0  0  0  0  0
   21.2600    5.2380   30.8820 C   0  0  0  0  0  0  0  0  0  0  0  0
   20.1850    5.0420   31.4090 O   0  0  0  0  0  0  0  0  0  0  0  0
   21.9400    4.2090   29.9950 C   0  0  0  0  0  0  0  0  0  0  0  0
   23.3000    3.7550   30.4350 C   0  0  0  0  0  0  0  0  0  0  0  0
   24.4630    4.4270   29.9530 C   0  0  0  0  0  0  0  0  0  0  0  0
   24.1600    5.5580   29.2000 O   0  0  0  0  0  0  0  0  0  0  0  0
   25.2150    6.5470   29.0530 C   0  0  0  0  0  0  0  0  0  0  0  0
   25.7370    3.9190   30.1740 C   0  0  0  0  0  0  0  0  0  0  0  0
   25.9140    2.7570   30.9500 C   0  0  0  0  0  0  0  0  0  0  0  0
   27.5410    2.1230   31.0920 S   0  0  0  0  0  0  0  0  0  0  0  0
   28.4760    3.1980   31.5040 O   0  0  0  0  0  0  0  0  0  0  0  0
   27.5320    1.0240   32.0870 O   0  0  0  0  0  0  0  0  0  0  0  0
   27.9200    1.5270   29.5070 C   0  0  0  0  0  0  0  0  0  0  0  0
   24.7810    2.1540   31.5150 C   0  0  0  0  0  0  0  0  0  0  0  0
   23.4740    2.6340   31.2270 C   0  0  0  0  0  0  0  0  0  0  0  0
   25.0350    1.1050   32.3570 O   0  0  0  0  0  0  0  0  0  0  0  0
   23.9030    0.3170   32.8290 C   0  0  0  0  0  0  0  0  0  0  0  0
   24.8970   12.4980   29.6890 H   0  0  0  0  0  0  0  0  0  0  0  0
   23.1850   13.0730   29.7940 H   0  0  0  0  0  0  0  0  0  0  0  0
   24.1780   12.9180   31.3020 H   0  0  0  0  0  0  0  0  0  0  0  0
   23.2690   10.5580   29.4620 H   0  0  0  0  0  0  0  0  0  0  0  0
   24.2510   10.4000   31.0180 H   0  0  0  0  0  0  0  0  0  0  0  0
   19.6720    6.8130   32.5300 H   0  0  0  0  0  0  0  0  0  0  0  0
   18.0670    8.1720   33.7170 H   0  0  0  0  0  0  0  0  0  0  0  0
   18.1800    9.9280   33.7470 H   0  0  0  0  0  0  0  0  0  0  0  0
   22.8480    6.5720   30.4620 H   0  0  0  0  0  0  0  0  0  0  0  0
   21.2690    3.3110   29.9210 H   0  0  0  0  0  0  0  0  0  0  0  0
   22.0310    4.6680   28.9690 H   0  0  0  0  0  0  0  0  0  0  0  0
   24.6460    7.4300   28.6840 H   0  0  0  0  0  0  0  0  0  0  0  0
   25.6950    6.7570   30.0330 H   0  0  0  0  0  0  0  0  0  0  0  0
   25.9470    6.1860   28.2990 H   0  0  0  0  0  0  0  0  0  0  0  0
   26.6020    4.4190   29.7250 H   0  0  0  0  0  0  0  0  0  0  0  0
   27.9380    2.3440   28.7360 H   0  0  0  0  0  0  0  0  0  0  0  0
   28.9230    1.0290   29.4610 H   0  0  0  0  0  0  0  0  0  0  0  0
   27.1690    0.7760   29.1450 H   0  0  0  0  0  0  0  0  0  0  0  0
   22.5990    2.1060   31.6110 H   0  0  0  0  0  0  0  0  0  0  0  0
   23.3620   -0.1260   31.9650 H   0  0  0  0  0  0  0  0  0  0  0  0
   23.2420    0.9330   33.4750 H   0  0  0  0  0  0  0  0  0  0  0  0
   24.4150   -0.4780   33.4250 H   0  0  0  0  0  0  0  0  0  0  0  0
  1  2  1  0  0  0  0
  1 31  1  0  0  0  0
  1 32  1  0  0  0  0
  1 33  1  0  0  0  0
  2  3  1  0  0  0  0
  2 34  1  0  0  0  0
  2 35  1  0  0  0  0
  3  4  1  0  0  0  0
  4 10  2  0  0  0  0
  4  5  1  0  0  0  0
  5  6  2  0  0  0  0
  6  7  1  0  0  0  0
  6 13  1  0  0  0  0
  7  8  2  0  0  0  0
  7 36  1  0  0  0  0
  8  9  1  0  0  0  0
  8 10  1  0  0  0  0
  9 37  1  0  0  0  0
  9 38  1  0  0  0  0
 10 11  1  0  0  0  0
 11 12  3  0  0  0  0
 13 14  1  0  0  0  0
 13 39  1  0  0  0  0
 14 15  2  0  0  0  0
 14 16  1  0  0  0  0
 16 17  1  0  0  0  0
 16 40  1  0  0  0  0
 16 41  1  0  0  0  0
 17 28  2  0  0  0  0
 17 18  1  0  0  0  0
 18 19  1  0  0  0  0
 18 21  2  0  0  0  0
 19 20  1  0  0  0  0
 20 42  1  0  0  0  0
 20 43  1  0  0  0  0
 20 44  1  0  0  0  0
 21 22  1  0  0  0  0
 21 45  1  0  0  0  0
 22 23  1  0  0  0  0
 22 27  2  0  0  0  0
 23 24  2  0  0  0  0
 23 25  2  0  0  0  0
 23 26  1  0  0  0  0
 26 46  1  0  0  0  0
 26 47  1  0  0  0  0
 26 48  1  0  0  0  0
 27 28  1  0  0  0  0
 27 29  1  0  0  0  0
 28 49  1  0  0  0  0
 29 30  1  0  0  0  0
 30 50  1  0  0  0  0
 30 51  1  0  0  0  0
 30 52  1  0  0  0  0
M  END
$$$$
