2t
                    3D
 Schrodinger Suite 2022-3.
 47 50  0  0  1  0  0  0  0  0999 V2000
   27.1540    8.9460   30.4430 C   0  0  0  0  0  0  0  0  0  0  0  0
   28.5210    9.5290   30.8250 C   0  0  0  0  0  0  0  0  0  0  0  0
   28.6160    8.2050   32.8480 C   0  0  0  0  0  0  0  0  0  0  0  0
   27.2720    7.5350   32.5380 C   0  0  0  0  0  0  0  0  0  0  0  0
   15.9630   10.5390   31.7000 C   0  0  0  0  0  0  0  0  0  0  0  0
   29.2930    8.6190   31.6410 O   0  0  0  0  0  0  0  0  0  0  0  0
   21.3780   12.5670   31.3110 C   0  0  0  0  0  0  0  0  0  0  0  0
   17.2560   11.0360   31.8430 C   0  0  0  0  0  0  0  0  0  0  0  0
   23.9710    8.4790   31.0690 C   0  0  0  0  0  0  0  0  0  0  0  0
   26.3990    8.5050   31.7160 C   0  0  0  0  0  0  0  0  0  0  0  0
   21.5440    9.7420   30.7480 C   0  0  0  0  0  0  0  0  0  0  0  0
   20.2670   10.4000   30.6990 C   0  0  0  0  0  0  0  0  0  0  0  0
   15.2920   10.8600   30.5140 C   0  0  0  0  0  0  0  0  0  0  0  0
   15.8560   11.6420   29.5020 C   0  0  0  0  0  0  0  0  0  0  0  0
   17.1490   12.1450   29.6760 C   0  0  0  0  0  0  0  0  0  0  0  0
   22.7050   10.4590   31.1550 C   0  0  0  0  0  0  0  0  0  0  0  0
   21.7200    8.3690   30.4230 C   0  0  0  0  0  0  0  0  0  0  0  0
   20.1990   11.7150   31.0070 C   0  0  0  0  0  0  0  0  0  0  0  0
   17.8400   11.8560   30.8560 C   0  0  0  0  0  0  0  0  0  0  0  0
   23.8710   12.6100   31.7350 C   0  0  0  0  0  0  0  0  0  0  0  0
   17.9630   10.7290   32.9230 F   0  0  0  0  0  0  0  0  0  0  0  0
   14.0670   10.3730   30.3350 F   0  0  0  0  0  0  0  0  0  0  0  0
   19.0580   12.5080   31.0990 O   0  0  0  0  0  0  0  0  0  0  0  0
   22.8880    7.7280   30.5690 N   0  0  0  0  0  0  0  0  0  0  0  0
   21.3690   13.7590   31.5160 O   0  0  0  0  0  0  0  0  0  0  0  0
   22.6310   11.8480   31.3860 N   0  0  0  0  0  0  0  0  0  0  0  0
   23.9120    9.8370   31.3240 N   0  0  0  0  0  0  0  0  0  0  0  0
   25.1270    7.8010   31.3700 N   0  0  0  0  0  0  0  0  0  0  0  0
   15.3120   11.8510   28.5800 H   0  0  0  0  0  0  0  0  0  0  0  0
   17.6130   12.7500   28.8900 H   0  0  0  0  0  0  0  0  0  0  0  0
   15.5120    9.9010   32.4610 H   0  0  0  0  0  0  0  0  0  0  0  0
   19.3940    9.8070   30.4220 H   0  0  0  0  0  0  0  0  0  0  0  0
   20.8720    7.7890   30.0230 H   0  0  0  0  0  0  0  0  0  0  0  0
   27.2850    8.0670   29.7710 H   0  0  0  0  0  0  0  0  0  0  0  0
   26.5670    9.7240   29.8990 H   0  0  0  0  0  0  0  0  0  0  0  0
   28.4010   10.4920   31.3720 H   0  0  0  0  0  0  0  0  0  0  0  0
   29.1760    9.6490   29.9330 H   0  0  0  0  0  0  0  0  0  0  0  0
   29.3370    7.4770   33.2870 H   0  0  0  0  0  0  0  0  0  0  0  0
   28.4770    9.0920   33.5080 H   0  0  0  0  0  0  0  0  0  0  0  0
   26.7560    7.2670   33.4910 H   0  0  0  0  0  0  0  0  0  0  0  0
   27.4440    6.5940   31.9590 H   0  0  0  0  0  0  0  0  0  0  0  0
   26.1500    9.4090   32.3390 H   0  0  0  0  0  0  0  0  0  0  0  0
   25.2390    6.8240   31.0270 H   0  0  0  0  0  0  0  0  0  0  0  0
   23.8180   13.0500   33.1290 C   0  0  0  0  0  0  0  0  0  0  0  0
   23.7550   13.3980   34.2290 N   0  0  0  0  0  0  0  0  0  0  0  0
   23.9730   13.5030   31.0450 H   0  0  0  0  0  0  0  0  0  0  0  0
   24.7980   11.9680   31.5770 H   0  0  0  0  0  0  0  0  0  0  0  0
  1  2  1  0  0  0  0
  1 10  1  0  0  0  0
  1 34  1  0  0  0  0
  1 35  1  0  0  0  0
  2  6  1  0  0  0  0
  2 36  1  0  0  0  0
  2 37  1  0  0  0  0
  3  4  1  0  0  0  0
  3  6  1  0  0  0  0
  3 38  1  0  0  0  0
  3 39  1  0  0  0  0
  4 10  1  0  0  0  0
  4 40  1  0  0  0  0
  4 41  1  0  0  0  0
  5  8  1  0  0  0  0
  5 13  2  0  0  0  0
  5 31  1  0  0  0  0
  7 18  1  0  0  0  0
  7 25  2  0  0  0  0
  7 26  1  0  0  0  0
  8 19  2  0  0  0  0
  8 21  1  0  0  0  0
  9 24  1  0  0  0  0
  9 27  2  0  0  0  0
  9 28  1  0  0  0  0
 10 28  1  0  0  0  0
 10 42  1  0  0  0  0
 11 12  1  0  0  0  0
 11 16  2  0  0  0  0
 11 17  1  0  0  0  0
 12 18  2  0  0  0  0
 12 32  1  0  0  0  0
 13 14  1  0  0  0  0
 13 22  1  0  0  0  0
 14 15  2  0  0  0  0
 14 29  1  0  0  0  0
 15 19  1  0  0  0  0
 15 30  1  0  0  0  0
 16 26  1  0  0  0  0
 16 27  1  0  0  0  0
 17 24  2  0  0  0  0
 17 33  1  0  0  0  0
 18 23  1  0  0  0  0
 19 23  1  0  0  0  0
 20 26  1  0  0  0  0
 20 44  1  0  0  0  0
 20 46  1  0  0  0  0
 20 47  1  0  0  0  0
 28 43  1  0  0  0  0
 44 45  3  0  0  0  0
M  END
$$$$
