20
 OpenBabel02232411153D
Structure written by MMmdl.
 49 52  0  0  0  0  0  0  0  0999 V2000
    1.9830   28.8510    6.8160 C   0  0  0  0  0  0  0  0  0  0  0  0
   -1.5260   31.4370    7.9210 C   0  0  0  0  0  0  0  0  0  0  0  0
    0.0450   25.9880    8.9570 C   0  0  0  0  0  0  0  0  0  0  0  0
   -0.7920   25.2550   10.0100 C   0  0  0  0  0  0  0  0  0  0  0  0
   -0.5560   23.7410    9.8030 C   0  0  0  0  0  0  0  0  0  0  0  0
   -1.2520   22.9100   10.8880 C   0  0  0  0  0  0  0  0  0  0  0  0
   -0.8260   23.3520   12.2980 C   0  0  0  0  0  0  0  0  0  0  0  0
   -1.0710   24.8550   12.5110 C   0  0  0  0  0  0  0  0  0  0  0  0
   -0.3810   25.6960   11.4280 C   0  0  0  0  0  0  0  0  0  0  0  0
    4.2110   25.0720    7.6230 C   0  0  0  0  0  0  0  0  0  0  0  0
    5.1880   24.7250    6.6810 C   0  0  0  0  0  0  0  0  0  0  0  0
    5.5220   25.6370    5.6750 C   0  0  0  0  0  0  0  0  0  0  0  0
    4.8670   26.8630    5.5790 C   0  0  0  0  0  0  0  0  0  0  0  0
    1.2630   27.9060    7.5380 N   0  0  0  0  0  0  0  0  0  0  0  0
    0.0580   28.2240    8.0730 C   0  0  0  0  0  0  0  0  0  0  0  0
   -0.6050   27.3190    8.8060 O   0  0  0  0  0  0  0  0  0  0  0  0
   -0.4770   29.5250    7.8750 C   0  0  0  0  0  0  0  0  0  0  0  0
   -1.6270   30.1720    8.3380 N   0  0  0  0  0  0  0  0  0  0  0  0
   -0.3120   31.6710    7.1820 N   0  0  0  0  0  0  0  0  0  0  0  0
    0.3560   30.4500    7.1220 C   0  0  0  0  0  0  0  0  0  0  0  0
    1.5610   30.1430    6.5390 N   0  0  0  0  0  0  0  0  0  0  0  0
    3.2420   28.4770    6.3600 N   0  0  0  0  0  0  0  0  0  0  0  0
    3.8820   27.2070    6.5310 C   0  0  0  0  0  0  0  0  0  0  0  0
    3.6020   26.3300    7.5900 C   0  0  0  0  0  0  0  0  0  0  0  0
   -2.2310   32.2410    8.1060 H   0  0  0  0  0  0  0  0  0  0  0  0
    1.0990   26.1240    9.3030 H   0  0  0  0  0  0  0  0  0  0  0  0
   -0.0010   25.5080    7.9610 H   0  0  0  0  0  0  0  0  0  0  0  0
   -1.8750   25.4790    9.8680 H   0  0  0  0  0  0  0  0  0  0  0  0
   -0.9430   23.4400    8.8060 H   0  0  0  0  0  0  0  0  0  0  0  0
    0.5450   23.5390    9.8390 H   0  0  0  0  0  0  0  0  0  0  0  0
   -2.3540   23.0270   10.7930 H   0  0  0  0  0  0  0  0  0  0  0  0
   -0.9920   21.8340   10.7550 H   0  0  0  0  0  0  0  0  0  0  0  0
   -1.4010   22.7720   13.0560 H   0  0  0  0  0  0  0  0  0  0  0  0
    0.2590   23.1390   12.4320 H   0  0  0  0  0  0  0  0  0  0  0  0
   -2.1670   25.0550   12.5080 H   0  0  0  0  0  0  0  0  0  0  0  0
   -0.6650   25.1510   13.5070 H   0  0  0  0  0  0  0  0  0  0  0  0
    0.7250   25.5810   11.5420 H   0  0  0  0  0  0  0  0  0  0  0  0
   -0.6430   26.7680   11.5770 H   0  0  0  0  0  0  0  0  0  0  0  0
    5.6770   23.7520    6.7110 H   0  0  0  0  0  0  0  0  0  0  0  0
    6.2950   25.3800    4.9450 H   0  0  0  0  0  0  0  0  0  0  0  0
    5.1190   27.5400    4.7610 H   0  0  0  0  0  0  0  0  0  0  0  0
   -0.0530   32.5540    6.7190 H   0  0  0  0  0  0  0  0  0  0  0  0
    3.7360   29.1260    5.7010 H   0  0  0  0  0  0  0  0  0  0  0  0
    2.8890   26.5720    8.3900 H   0  0  0  0  0  0  0  0  0  0  0  0
    3.7520   24.0470    8.6300 C   0  0  0  0  0  0  0  0  0  0  0  0
    3.1660   23.2450    8.1150 H   0  0  0  0  0  0  0  0  0  0  0  0
    4.5990   23.6210    9.2090 H   0  0  0  0  0  0  0  0  0  0  0  0
    2.8060   24.6530    9.5410 O   0  0  0  0  0  0  0  0  0  0  0  0
    3.1770   24.5440   10.4730 H   0  0  0  0  0  0  0  0  0  0  0  0
  1 14  2  0  0  0  0
  1 21  1  0  0  0  0
  1 22  1  0  0  0  0
  2 18  2  0  0  0  0
  2 19  1  0  0  0  0
  2 25  1  0  0  0  0
  3  4  1  0  0  0  0
  3 16  1  0  0  0  0
  3 26  1  0  0  0  0
  3 27  1  0  0  0  0
  4  5  1  0  0  0  0
  4  9  1  0  0  0  0
  4 28  1  0  0  0  0
  5  6  1  0  0  0  0
  5 29  1  0  0  0  0
  5 30  1  0  0  0  0
  6  7  1  0  0  0  0
  6 31  1  0  0  0  0
  6 32  1  0  0  0  0
  7  8  1  0  0  0  0
  7 33  1  0  0  0  0
  7 34  1  0  0  0  0
  8  9  1  0  0  0  0
  8 35  1  0  0  0  0
  8 36  1  0  0  0  0
  9 37  1  0  0  0  0
  9 38  1  0  0  0  0
 10 11  2  0  0  0  0
 10 24  1  0  0  0  0
 10 45  1  0  0  0  0
 11 12  1  0  0  0  0
 11 39  1  0  0  0  0
 12 13  2  0  0  0  0
 12 40  1  0  0  0  0
 13 23  1  0  0  0  0
 13 41  1  0  0  0  0
 14 15  1  0  0  0  0
 15 16  1  0  0  0  0
 15 17  2  0  0  0  0
 17 18  1  0  0  0  0
 17 20  1  0  0  0  0
 19 20  1  0  0  0  0
 19 42  1  0  0  0  0
 20 21  2  0  0  0  0
 22 23  1  0  0  0  0
 22 43  1  0  0  0  0
 23 24  2  0  0  0  0
 24 44  1  0  0  0  0
 45 46  1  0  0  0  0
 45 47  1  0  0  0  0
 45 48  1  0  0  0  0
 48 49  1  0  0  0  0
M  END
$$$$
