18639-1
 OpenBabel02232411163D
Structure written by MMmdl.
 48 49  0  0  0  0  0  0  0  0999 V2000
   23.2130   10.7820   29.0630 C   0  0  0  0  0  0  0  0  0  0  0  0
   23.4870   11.0330   30.5310 C   0  0  0  0  0  0  0  0  0  0  0  0
   22.2210   11.1460   31.2860 O   0  0  0  0  0  0  0  0  0  0  0  0
   21.5600   10.0190   31.6330 C   0  0  0  0  0  0  0  0  0  0  0  0
   22.0300    8.8200   31.2170 N   0  0  0  0  0  0  0  0  0  0  0  0
   21.2840    7.6960   31.5320 C   0  0  0  0  0  0  0  0  0  0  0  0
   20.1160    7.7520   32.2830 C   0  0  0  0  0  0  0  0  0  0  0  0
   19.6450    9.0130   32.7400 C   0  0  0  0  0  0  0  0  0  0  0  0
   18.4890    9.0720   33.4760 N   0  0  0  0  0  0  0  0  0  0  0  0
   20.3750   10.1990   32.4070 C   0  0  0  0  0  0  0  0  0  0  0  0
   19.9790   11.5050   32.7640 C   0  0  0  0  0  0  0  0  0  0  0  0
   19.7050   12.6030   33.0180 N   0  0  0  0  0  0  0  0  0  0  0  0
   21.8620    6.5260   30.9850 N   0  0  0  0  0  0  0  0  0  0  0  0
   21.2600    5.2560   30.8850 C   0  0  0  0  0  0  0  0  0  0  0  0
   20.1630    5.0080   31.3380 O   0  0  0  0  0  0  0  0  0  0  0  0
   22.0880    4.2580   30.0840 C   0  0  0  0  0  0  0  0  0  0  0  0
   23.4580    3.9960   30.6360 C   0  0  0  0  0  0  0  0  0  0  0  0
   24.5500    4.8610   30.3100 C   0  0  0  0  0  0  0  0  0  0  0  0
   24.1860    5.9040   29.4680 O   0  0  0  0  0  0  0  0  0  0  0  0
   25.1320    6.9970   29.3030 C   0  0  0  0  0  0  0  0  0  0  0  0
   25.8320    4.6270   30.7810 C   0  0  0  0  0  0  0  0  0  0  0  0
   26.0710    3.5160   31.6170 C   0  0  0  0  0  0  0  0  0  0  0  0
   27.4270    3.2680   32.1150 N   0  3  0  0  0  0  0  0  0  0  0  0
   27.5690    2.4770   33.0350 O   0  5  0  0  0  0  0  0  0  0  0  0
   28.3620    3.8570   31.5850 O   0  0  0  0  0  0  0  0  0  0  0  0
   25.0040    2.6470   31.9460 C   0  0  0  0  0  0  0  0  0  0  0  0
   23.7060    2.8950   31.4400 C   0  0  0  0  0  0  0  0  0  0  0  0
   25.3590    1.6140   32.7600 O   0  0  0  0  0  0  0  0  0  0  0  0
   24.3650    0.5770   33.0120 C   0  0  0  0  0  0  0  0  0  0  0  0
   24.1760   10.8290   28.4960 H   0  0  0  0  0  0  0  0  0  0  0  0
   22.5260   11.5490   28.6410 H   0  0  0  0  0  0  0  0  0  0  0  0
   22.7650    9.7730   28.9030 H   0  0  0  0  0  0  0  0  0  0  0  0
   23.8980   12.0550   30.7150 H   0  0  0  0  0  0  0  0  0  0  0  0
   24.1200   10.2360   30.9830 H   0  0  0  0  0  0  0  0  0  0  0  0
   19.5470    6.8490   32.5100 H   0  0  0  0  0  0  0  0  0  0  0  0
   17.9850    8.2060   33.7470 H   0  0  0  0  0  0  0  0  0  0  0  0
   18.0970    9.9620   33.7810 H   0  0  0  0  0  0  0  0  0  0  0  0
   22.7860    6.6730   30.5050 H   0  0  0  0  0  0  0  0  0  0  0  0
   21.5190    3.2910   30.0280 H   0  0  0  0  0  0  0  0  0  0  0  0
   22.1920    4.6700   29.0400 H   0  0  0  0  0  0  0  0  0  0  0  0
   25.4490    7.3940   30.2910 H   0  0  0  0  0  0  0  0  0  0  0  0
   25.9880    6.6480   28.6880 H   0  0  0  0  0  0  0  0  0  0  0  0
   24.5100    7.7410   28.7540 H   0  0  0  0  0  0  0  0  0  0  0  0
   26.6690    5.2810   30.5060 H   0  0  0  0  0  0  0  0  0  0  0  0
   22.8940    2.2040   31.6790 H   0  0  0  0  0  0  0  0  0  0  0  0
   24.9550   -0.1520   33.6180 H   0  0  0  0  0  0  0  0  0  0  0  0
   23.5200    0.9930   33.6010 H   0  0  0  0  0  0  0  0  0  0  0  0
   24.0340    0.1230   32.0530 H   0  0  0  0  0  0  0  0  0  0  0  0
  1  2  1  0  0  0  0
  1 30  1  0  0  0  0
  1 31  1  0  0  0  0
  1 32  1  0  0  0  0
  2  3  1  0  0  0  0
  2 33  1  0  0  0  0
  2 34  1  0  0  0  0
  3  4  1  0  0  0  0
  4 10  2  0  0  0  0
  4  5  1  0  0  0  0
  5  6  2  0  0  0  0
  6  7  1  0  0  0  0
  6 13  1  0  0  0  0
  7  8  2  0  0  0  0
  7 35  1  0  0  0  0
  8  9  1  0  0  0  0
  8 10  1  0  0  0  0
  9 36  1  0  0  0  0
  9 37  1  0  0  0  0
 10 11  1  0  0  0  0
 11 12  3  0  0  0  0
 13 14  1  0  0  0  0
 13 38  1  0  0  0  0
 14 15  2  0  0  0  0
 14 16  1  0  0  0  0
 16 17  1  0  0  0  0
 16 39  1  0  0  0  0
 16 40  1  0  0  0  0
 17 27  2  0  0  0  0
 17 18  1  0  0  0  0
 18 19  1  0  0  0  0
 18 21  2  0  0  0  0
 19 20  1  0  0  0  0
 20 41  1  0  0  0  0
 20 42  1  0  0  0  0
 20 43  1  0  0  0  0
 21 22  1  0  0  0  0
 21 44  1  0  0  0  0
 22 23  1  0  0  0  0
 22 26  2  0  0  0  0
 23 24  1  0  0  0  0
 23 25  2  0  0  0  0
 26 27  1  0  0  0  0
 26 28  1  0  0  0  0
 27 45  1  0  0  0  0
 28 29  1  0  0  0  0
 29 46  1  0  0  0  0
 29 47  1  0  0  0  0
 29 48  1  0  0  0  0
M  CHG  2  23   1  24  -1
M  END
$$$$
