p38a_3flw
 OpenBabel02232411163D
Structure written by MMmdl.
 49 51  0  0  0  0  0  0  0  0999 V2000
   38.3070   36.5690   17.1190 C   0  0  0  0  0  0  0  0  0  0  0  0
   37.6670   36.7350   15.8830 C   0  0  0  0  0  0  0  0  0  0  0  0
   32.9170   39.8930   27.3080 C   0  0  0  0  0  0  0  0  0  0  0  0
   34.2850   40.4400   27.7420 C   0  0  0  0  0  0  0  0  0  0  0  0
   31.6080   38.2860   25.8400 C   0  0  0  0  0  0  0  0  0  0  0  0
   34.0360   34.9430   23.6300 C   0  0  0  0  0  0  0  0  0  0  0  0
   38.0420   35.9650   19.3780 F   0  0  0  0  0  0  0  0  0  0  0  0
   37.5180   36.1070   18.1680 C   0  0  0  0  0  0  0  0  0  0  0  0
   38.3690   37.2420   14.8730 F   0  0  0  0  0  0  0  0  0  0  0  0
   36.3190   36.4370   15.6670 C   0  0  0  0  0  0  0  0  0  0  0  0
   35.5510   35.9580   16.7330 C   0  0  0  0  0  0  0  0  0  0  0  0
   36.1560   35.7850   17.9810 C   0  0  0  0  0  0  0  0  0  0  0  0
   35.4310   35.1490   18.9950 O   0  0  0  0  0  0  0  0  0  0  0  0
   35.0510   35.9530   20.0690 C   0  0  0  0  0  0  0  0  0  0  0  0
   35.0380   37.3040   20.1260 C   0  0  0  0  0  0  0  0  0  0  0  0
   34.6280   37.9400   21.3490 C   0  0  0  0  0  0  0  0  0  0  0  0
   34.5340   39.3490   21.5010 C   0  0  0  0  0  0  0  0  0  0  0  0
   34.1570   39.9380   22.6460 N   0  0  0  0  0  0  0  0  0  0  0  0
   34.6120   35.0630   21.1760 C   0  0  0  0  0  0  0  0  0  0  0  0
   34.4860   33.8590   21.1060 O   0  0  0  0  0  0  0  0  0  0  0  0
   34.3280   35.7450   22.4090 N   0  0  0  0  0  0  0  0  0  0  0  0
   34.2990   37.1460   22.4890 C   0  0  0  0  0  0  0  0  0  0  0  0
   33.9280   37.7160   23.6810 N   0  0  0  0  0  0  0  0  0  0  0  0
   33.8500   39.0940   23.7330 C   0  0  0  0  0  0  0  0  0  0  0  0
   33.4630   39.6940   24.9090 N   0  0  0  0  0  0  0  0  0  0  0  0
   32.9910   38.9280   26.1060 C   0  0  0  0  0  0  0  0  0  0  0  0
   31.2530   37.2460   26.9130 C   0  0  0  0  0  0  0  0  0  0  0  0
   30.4730   36.2000   26.2940 O   0  0  0  0  0  0  0  0  0  0  0  0
   34.1640   41.1940   28.9630 O   0  0  0  0  0  0  0  0  0  0  0  0
   39.3600   36.8280   17.2610 H   0  0  0  0  0  0  0  0  0  0  0  0
   32.4600   39.3460   28.1690 H   0  0  0  0  0  0  0  0  0  0  0  0
   32.2540   40.7530   27.0540 H   0  0  0  0  0  0  0  0  0  0  0  0
   34.9900   39.6210   28.0110 H   0  0  0  0  0  0  0  0  0  0  0  0
   34.7100   41.1140   26.9640 H   0  0  0  0  0  0  0  0  0  0  0  0
   30.8250   39.0750   25.7940 H   0  0  0  0  0  0  0  0  0  0  0  0
   31.6260   37.7550   24.8560 H   0  0  0  0  0  0  0  0  0  0  0  0
   32.9900   35.1490   23.9840 H   0  0  0  0  0  0  0  0  0  0  0  0
   34.1430   33.8490   23.4100 H   0  0  0  0  0  0  0  0  0  0  0  0
   34.7490   35.2270   24.4500 H   0  0  0  0  0  0  0  0  0  0  0  0
   35.8550   36.5890   14.6910 H   0  0  0  0  0  0  0  0  0  0  0  0
   34.4880   35.7390   16.5850 H   0  0  0  0  0  0  0  0  0  0  0  0
   35.3310   37.9390   19.2870 H   0  0  0  0  0  0  0  0  0  0  0  0
   34.7640   40.0130   20.6500 H   0  0  0  0  0  0  0  0  0  0  0  0
   33.3600   40.7250   24.9520 H   0  0  0  0  0  0  0  0  0  0  0  0
   33.7490   38.1220   26.3200 H   0  0  0  0  0  0  0  0  0  0  0  0
   32.1630   36.7210   27.2890 H   0  0  0  0  0  0  0  0  0  0  0  0
   30.6750   37.7000   27.7460 H   0  0  0  0  0  0  0  0  0  0  0  0
   29.5230   36.2580   26.6690 H   0  0  0  0  0  0  0  0  0  0  0  0
   33.4270   41.8720   28.8400 H   0  0  0  0  0  0  0  0  0  0  0  0
  1  2  2  0  0  0  0
  1  8  1  0  0  0  0
  1 30  1  0  0  0  0
  2  9  1  0  0  0  0
  2 10  1  0  0  0  0
  3  4  1  0  0  0  0
  3 26  1  0  0  0  0
  3 31  1  0  0  0  0
  3 32  1  0  0  0  0
  4 29  1  0  0  0  0
  4 33  1  0  0  0  0
  4 34  1  0  0  0  0
  5 26  1  0  0  0  0
  5 27  1  0  0  0  0
  5 35  1  0  0  0  0
  5 36  1  0  0  0  0
  6 21  1  0  0  0  0
  6 37  1  0  0  0  0
  6 38  1  0  0  0  0
  6 39  1  0  0  0  0
  7  8  1  0  0  0  0
  8 12  2  0  0  0  0
 10 11  2  0  0  0  0
 10 40  1  0  0  0  0
 11 12  1  0  0  0  0
 11 41  1  0  0  0  0
 12 13  1  0  0  0  0
 13 14  1  0  0  0  0
 14 15  2  0  0  0  0
 14 19  1  0  0  0  0
 15 16  1  0  0  0  0
 15 42  1  0  0  0  0
 16 17  2  0  0  0  0
 16 22  1  0  0  0  0
 17 18  1  0  0  0  0
 17 43  1  0  0  0  0
 18 24  2  0  0  0  0
 19 20  2  0  0  0  0
 19 21  1  0  0  0  0
 21 22  1  0  0  0  0
 22 23  2  0  0  0  0
 23 24  1  0  0  0  0
 24 25  1  0  0  0  0
 25 26  1  0  0  0  0
 25 44  1  0  0  0  0
 26 45  1  0  0  0  0
 27 28  1  0  0  0  0
 27 46  1  0  0  0  0
 27 47  1  0  0  0  0
 28 48  1  0  0  0  0
 29 49  1  0  0  0  0
M  END
$$$$
