23486
 OpenBabel02232411173D
Structure written by MMmdl.
 60 63  0  0  0  0  0  0  0  0999 V2000
   42.4860   17.9670   12.6260 O   0  0  0  0  0  0  0  0  0  0  0  0
   41.3390   17.6740   12.9810 C   0  0  0  0  0  0  0  0  0  0  0  0
   40.3080   18.3480   12.7730 O   0  5  0  0  0  0  0  0  0  0  0  0
   41.1040   16.3340   13.7420 C   0  0  0  0  0  0  0  0  0  0  0  0
   42.4500   15.7630   13.7530 O   0  0  0  0  0  0  0  0  0  0  0  0
   42.6640   14.8470   14.7360 C   0  0  0  0  0  0  0  0  0  0  0  0
   42.0750   13.5230   14.6900 C   0  0  0  0  0  0  0  0  0  0  0  0
   40.9890   13.1630   13.4180 Cl  0  0  0  0  0  0  0  0  0  0  0  0
   42.4780   12.6690   15.6830 C   0  0  0  0  0  0  0  0  0  0  0  0
   42.0710   11.3200   16.0120 C   0  0  0  0  0  0  0  0  0  0  0  0
   42.7960   10.5160   16.9300 C   0  0  0  0  0  0  0  0  0  0  0  0
   42.3360    9.2490   17.2680 C   0  0  0  0  0  0  0  0  0  0  0  0
   41.1610    8.7120   16.7150 C   0  0  0  0  0  0  0  0  0  0  0  0
   40.4420    9.4880   15.8010 C   0  0  0  0  0  0  0  0  0  0  0  0
   39.1710    9.1410   15.2420 N   0  0  0  0  0  0  0  0  0  0  0  0
   38.5550    7.8090   15.4240 C   0  0  0  0  0  0  0  0  0  0  0  0
   37.0420    7.9330   15.0980 C   0  0  0  0  0  0  0  0  0  0  0  0
   36.7670    8.0960   13.5940 C   0  0  0  0  0  0  0  0  0  0  0  0
   37.3800    7.0180   12.7700 N   0  0  0  0  0  0  0  0  0  0  0  0
   36.3870    5.7240   12.2910 S   0  0  0  0  0  0  0  0  0  0  0  0
   37.1090    4.9420   11.2950 O   0  0  0  0  0  0  0  0  0  0  0  0
   35.1860    6.3670   11.7260 O   0  0  0  0  0  0  0  0  0  0  0  0
   35.9610    4.7430   13.6860 C   0  0  0  0  0  0  0  0  0  0  0  0
   35.7300    3.3220   13.2870 C   0  0  0  0  0  0  0  0  0  0  0  0
   34.4520    2.8870   12.9010 C   0  0  0  0  0  0  0  0  0  0  0  0
   34.2490    1.5580   12.5190 C   0  0  0  0  0  0  0  0  0  0  0  0
   35.3150    0.6530   12.5190 C   0  0  0  0  0  0  0  0  0  0  0  0
   36.5880    1.0800   12.9110 C   0  0  0  0  0  0  0  0  0  0  0  0
   36.7970    2.4060   13.2980 C   0  0  0  0  0  0  0  0  0  0  0  0
   38.8230    6.7950   13.0640 C   0  0  0  0  0  0  0  0  0  0  0  0
   39.1610    6.6760   14.5580 C   0  0  0  0  0  0  0  0  0  0  0  0
   40.9090   10.7760   15.4500 C   0  0  0  0  0  0  0  0  0  0  0  0
   43.6440   13.5330   16.6750 S   0  0  0  0  0  0  0  0  0  0  0  0
   43.5480   15.0280   15.7640 C   0  0  0  0  0  0  0  0  0  0  0  0
   44.3510   16.2630   16.1940 C   0  0  0  0  0  0  0  0  0  0  0  0
   44.9860   16.1310   17.2650 O   0  0  0  0  0  0  0  0  0  0  0  0
   44.3470   17.2590   15.4720 O   0  5  0  0  0  0  0  0  0  0  0  0
   40.4300   15.6610   13.1730 H   0  0  0  0  0  0  0  0  0  0  0  0
   40.7210   16.4890   14.7720 H   0  0  0  0  0  0  0  0  0  0  0  0
   43.7230   10.8690   17.3850 H   0  0  0  0  0  0  0  0  0  0  0  0
   42.8880    8.6370   17.9860 H   0  0  0  0  0  0  0  0  0  0  0  0
   40.8350    7.7150   17.0010 H   0  0  0  0  0  0  0  0  0  0  0  0
   39.0340    9.4920   14.2820 H   0  0  0  0  0  0  0  0  0  0  0  0
   38.6560    7.5060   16.5010 H   0  0  0  0  0  0  0  0  0  0  0  0
   36.5370    7.0160   15.4870 H   0  0  0  0  0  0  0  0  0  0  0  0
   36.6170    8.8050   15.6480 H   0  0  0  0  0  0  0  0  0  0  0  0
   35.6600    8.1150   13.4210 H   0  0  0  0  0  0  0  0  0  0  0  0
   37.2030    9.0690   13.2320 H   0  0  0  0  0  0  0  0  0  0  0  0
   36.7650    4.7870   14.4790 H   0  0  0  0  0  0  0  0  0  0  0  0
   35.0500    5.1580   14.2040 H   0  0  0  0  0  0  0  0  0  0  0  0
   33.6010    3.5730   12.9050 H   0  0  0  0  0  0  0  0  0  0  0  0
   33.2500    1.2230   12.2250 H   0  0  0  0  0  0  0  0  0  0  0  0
   35.1520   -0.3860   12.2220 H   0  0  0  0  0  0  0  0  0  0  0  0
   37.4200    0.3700   12.9250 H   0  0  0  0  0  0  0  0  0  0  0  0
   37.7960    2.7200   13.6210 H   0  0  0  0  0  0  0  0  0  0  0  0
   39.1810    5.8690   12.5440 H   0  0  0  0  0  0  0  0  0  0  0  0
   39.3750    7.6820   12.6530 H   0  0  0  0  0  0  0  0  0  0  0  0
   40.2730    6.6720   14.6740 H   0  0  0  0  0  0  0  0  0  0  0  0
   38.7910    5.7040   14.9620 H   0  0  0  0  0  0  0  0  0  0  0  0
   40.3040   11.3370   14.7430 H   0  0  0  0  0  0  0  0  0  0  0  0
  1  2  2  0  0  0  0
  2  3  1  0  0  0  0
  2  4  1  0  0  0  0
  4  5  1  0  0  0  0
  4 38  1  0  0  0  0
  4 39  1  0  0  0  0
  5  6  1  0  0  0  0
  6 34  2  0  0  0  0
  6  7  1  0  0  0  0
  7  8  1  0  0  0  0
  7  9  2  0  0  0  0
  9 10  1  0  0  0  0
  9 33  1  0  0  0  0
 10 32  2  0  0  0  0
 10 11  1  0  0  0  0
 11 12  2  0  0  0  0
 11 40  1  0  0  0  0
 12 13  1  0  0  0  0
 12 41  1  0  0  0  0
 13 14  2  0  0  0  0
 13 42  1  0  0  0  0
 14 15  1  0  0  0  0
 14 32  1  0  0  0  0
 15 16  1  0  0  0  0
 15 43  1  0  0  0  0
 16 31  1  0  0  0  0
 16 17  1  0  0  0  0
 16 44  1  0  0  0  0
 17 18  1  0  0  0  0
 17 45  1  0  0  0  0
 17 46  1  0  0  0  0
 18 19  1  0  0  0  0
 18 47  1  0  0  0  0
 18 48  1  0  0  0  0
 19 20  1  0  0  0  0
 19 30  1  0  0  0  0
 20 21  2  0  0  0  0
 20 22  2  0  0  0  0
 20 23  1  0  0  0  0
 23 24  1  0  0  0  0
 23 49  1  0  0  0  0
 23 50  1  0  0  0  0
 24 29  2  0  0  0  0
 24 25  1  0  0  0  0
 25 26  2  0  0  0  0
 25 51  1  0  0  0  0
 26 27  1  0  0  0  0
 26 52  1  0  0  0  0
 27 28  2  0  0  0  0
 27 53  1  0  0  0  0
 28 29  1  0  0  0  0
 28 54  1  0  0  0  0
 29 55  1  0  0  0  0
 30 31  1  0  0  0  0
 30 56  1  0  0  0  0
 30 57  1  0  0  0  0
 31 58  1  0  0  0  0
 31 59  1  0  0  0  0
 32 60  1  0  0  0  0
 33 34  1  0  0  0  0
 34 35  1  0  0  0  0
 35 36  2  0  0  0  0
 35 37  1  0  0  0  0
M  CHG  2   3  -1  37  -1
M  END
$$$$
