CAT-17e
 OpenBabel02232411143D
Structure written by MMmdl.
 46 49  0  0  1  0  0  0  0  0999 V2000
   12.2530    4.1280   -5.4110 C   0  0  0  0  0  0  0  0  0  0  0  0
   12.7480    4.7900   -4.2140 O   0  0  0  0  0  0  0  0  0  0  0  0
   13.5680    4.0850   -3.3810 C   0  0  0  0  0  0  0  0  0  0  0  0
   13.9430    4.8210   -2.2100 C   0  0  0  0  0  0  0  0  0  0  0  0
   14.7320    4.2890   -1.2670 N   0  0  0  0  0  0  0  0  0  0  0  0
   15.1680    3.0040   -1.4220 C   0  0  0  0  0  0  0  0  0  0  0  0
   14.8410    2.2270   -2.5450 C   0  0  0  0  0  0  0  0  0  0  0  0
   15.3230    0.8330   -2.6570 C   0  0  0  0  0  0  0  0  0  0  0  0
   16.2090    0.4570   -3.6820 C   0  0  0  0  0  0  0  0  0  0  0  0
   16.6860   -0.8540   -3.7460 C   0  0  0  0  0  0  0  0  0  0  0  0
   16.2580   -1.8110   -2.8210 C   0  0  0  0  0  0  0  0  0  0  0  0
   15.3300   -1.4550   -1.8350 C   0  0  0  0  0  0  0  0  0  0  0  0
   14.7680   -2.4950   -0.8920 C   0  0  1  0  0  0  0  0  0  0  0  0
   15.0110   -3.9410   -1.2970 C   0  0  0  0  0  0  0  0  0  0  0  0
   16.2580   -4.6840   -0.8470 C   0  0  0  0  0  0  0  0  0  0  0  0
   14.9110   -5.0720   -0.2790 C   0  0  0  0  0  0  0  0  0  0  0  0
   15.2220   -2.1930    0.5170 N   0  3  0  0  0  0  0  0  0  0  0  0
   14.1370   -2.3130    1.3990 C   0  0  0  0  0  0  0  0  0  0  0  0
   14.2950   -2.4600    2.7460 N   0  0  0  0  0  0  0  0  0  0  0  0
   12.9430   -2.3010    0.6870 N   0  0  0  0  0  0  0  0  0  0  0  0
   11.6020   -2.4390    1.2950 C   0  0  0  0  0  0  0  0  0  0  0  0
   13.2130   -2.3580   -0.7680 C   0  0  0  0  0  0  0  0  0  0  0  0
   12.3400   -2.3030   -1.5720 O   0  0  0  0  0  0  0  0  0  0  0  0
   14.8870   -0.1270   -1.7340 C   0  0  0  0  0  0  0  0  0  0  0  0
   14.0340    2.7820   -3.5560 C   0  0  0  0  0  0  0  0  0  0  0  0
   11.6270    4.9360   -5.8630 H   0  0  0  0  0  0  0  0  0  0  0  0
   13.0990    3.8530   -6.0740 H   0  0  0  0  0  0  0  0  0  0  0  0
   11.6360    3.2460   -5.1350 H   0  0  0  0  0  0  0  0  0  0  0  0
   13.5680    5.8460   -2.0600 H   0  0  0  0  0  0  0  0  0  0  0  0
   15.7850    2.5890   -0.6120 H   0  0  0  0  0  0  0  0  0  0  0  0
   16.5290    1.1860   -4.4330 H   0  0  0  0  0  0  0  0  0  0  0  0
   17.3990   -1.1420   -4.5260 H   0  0  0  0  0  0  0  0  0  0  0  0
   16.6480   -2.8300   -2.8710 H   0  0  0  0  0  0  0  0  0  0  0  0
   14.6410   -4.1470   -2.3190 H   0  0  0  0  0  0  0  0  0  0  0  0
   16.7680   -5.3260   -1.5660 H   0  0  0  0  0  0  0  0  0  0  0  0
   16.9810   -4.1760   -0.2060 H   0  0  0  0  0  0  0  0  0  0  0  0
   14.6980   -4.8400    0.7710 H   0  0  0  0  0  0  0  0  0  0  0  0
   14.4340   -6.0090   -0.5950 H   0  0  0  0  0  0  0  0  0  0  0  0
   16.1590   -2.5490    0.8590 H   0  0  0  0  0  0  0  0  0  0  0  0
   13.5830   -2.0870    3.4230 H   0  0  0  0  0  0  0  0  0  0  0  0
   11.0650   -3.3020    0.8120 H   0  0  0  0  0  0  0  0  0  0  0  0
   11.6760   -2.6440    2.3940 H   0  0  0  0  0  0  0  0  0  0  0  0
   11.0240   -1.4910    1.1310 H   0  0  0  0  0  0  0  0  0  0  0  0
   14.2060    0.1580   -0.9310 H   0  0  0  0  0  0  0  0  0  0  0  0
   13.7870    2.1850   -4.4370 H   0  0  0  0  0  0  0  0  0  0  0  0
   15.2770   -2.3940    3.1400 H   0  0  0  0  0  0  0  0  0  0  0  0
  1  2  1  0  0  0  0
  1 26  1  0  0  0  0
  1 27  1  0  0  0  0
  1 28  1  0  0  0  0
  2  3  1  0  0  0  0
  3  4  2  0  0  0  0
  3 25  1  0  0  0  0
  4  5  1  0  0  0  0
  4 29  1  0  0  0  0
  5  6  2  0  0  0  0
  6  7  1  0  0  0  0
  6 30  1  0  0  0  0
  7  8  1  0  0  0  0
  7 25  2  0  0  0  0
  8  9  2  0  0  0  0
  8 24  1  0  0  0  0
  9 10  1  0  0  0  0
  9 31  1  0  0  0  0
 10 11  2  0  0  0  0
 10 32  1  0  0  0  0
 11 12  1  0  0  0  0
 11 33  1  0  0  0  0
 12 24  2  0  0  0  0
 13 12  1  6  0  0  0
 13 14  1  0  0  0  0
 13 17  1  0  0  0  0
 13 22  1  0  0  0  0
 14 15  1  0  0  0  0
 14 16  1  0  0  0  0
 14 34  1  0  0  0  0
 15 16  1  0  0  0  0
 15 35  1  0  0  0  0
 15 36  1  0  0  0  0
 16 37  1  0  0  0  0
 16 38  1  0  0  0  0
 17 18  2  0  0  0  0
 17 39  1  0  0  0  0
 18 19  1  0  0  0  0
 18 20  1  0  0  0  0
 19 40  1  0  0  0  0
 19 46  1  0  0  0  0
 20 21  1  0  0  0  0
 20 22  1  0  0  0  0
 21 41  1  0  0  0  0
 21 42  1  0  0  0  0
 21 43  1  0  0  0  0
 22 23  2  0  0  0  0
 24 44  1  0  0  0  0
 25 45  1  0  0  0  0
M  CHG  1  17   1
M  END
$$$$
