18630-1
 OpenBabel02232411163D
Structure written by MMmdl.
 41 42  0  0  0  0  0  0  0  0999 V2000
   23.7830   12.6460   30.3470 C   0  0  0  0  0  0  0  0  0  0  0  0
   23.3560   11.1950   30.4560 C   0  0  0  0  0  0  0  0  0  0  0  0
   22.1120   11.2750   31.2650 O   0  0  0  0  0  0  0  0  0  0  0  0
   21.4850   10.1310   31.6070 C   0  0  0  0  0  0  0  0  0  0  0  0
   21.9730    8.9430   31.1750 N   0  0  0  0  0  0  0  0  0  0  0  0
   21.2560    7.8010   31.5070 C   0  0  0  0  0  0  0  0  0  0  0  0
   20.1020    7.8360   32.2820 C   0  0  0  0  0  0  0  0  0  0  0  0
   19.6030    9.0860   32.7360 C   0  0  0  0  0  0  0  0  0  0  0  0
   18.4560    9.1260   33.4870 N   0  0  0  0  0  0  0  0  0  0  0  0
   20.3000   10.2860   32.3870 C   0  0  0  0  0  0  0  0  0  0  0  0
   19.8690   11.5850   32.7290 C   0  0  0  0  0  0  0  0  0  0  0  0
   19.5620   12.6780   32.9680 N   0  0  0  0  0  0  0  0  0  0  0  0
   21.8400    6.6350   30.9570 N   0  0  0  0  0  0  0  0  0  0  0  0
   21.2970    5.3270   30.9790 C   0  0  0  0  0  0  0  0  0  0  0  0
   20.2230    5.0850   31.4920 O   0  0  0  0  0  0  0  0  0  0  0  0
   22.1150    4.2760   30.2480 C   0  0  0  0  0  0  0  0  0  0  0  0
   23.6050    4.4000   30.4170 C   0  0  0  0  0  0  0  0  0  0  0  0
   24.2540    3.7340   31.4670 C   0  0  0  0  0  0  0  0  0  0  0  0
   25.6340    3.8640   31.6430 C   0  0  0  0  0  0  0  0  0  0  0  0
   26.3920    4.6620   30.7720 C   0  0  0  0  0  0  0  0  0  0  0  0
   27.8650    4.8250   30.9570 C   0  0  0  0  0  0  0  0  0  0  0  0
   25.7420    5.3120   29.7080 C   0  0  0  0  0  0  0  0  0  0  0  0
   24.3650    5.1810   29.5310 C   0  0  0  0  0  0  0  0  0  0  0  0
   24.6950   12.7030   29.7010 H   0  0  0  0  0  0  0  0  0  0  0  0
   22.9840   13.2640   29.8730 H   0  0  0  0  0  0  0  0  0  0  0  0
   24.0260   13.0760   31.3440 H   0  0  0  0  0  0  0  0  0  0  0  0
   23.0880   10.7540   29.4700 H   0  0  0  0  0  0  0  0  0  0  0  0
   24.0920   10.5720   31.0120 H   0  0  0  0  0  0  0  0  0  0  0  0
   19.5600    6.9210   32.5340 H   0  0  0  0  0  0  0  0  0  0  0  0
   17.9600    8.2530   33.7520 H   0  0  0  0  0  0  0  0  0  0  0  0
   18.0460   10.0110   33.7850 H   0  0  0  0  0  0  0  0  0  0  0  0
   22.7410    6.7870   30.4640 H   0  0  0  0  0  0  0  0  0  0  0  0
   21.7950    3.2630   30.6200 H   0  0  0  0  0  0  0  0  0  0  0  0
   21.8400    4.3440   29.1630 H   0  0  0  0  0  0  0  0  0  0  0  0
   23.6900    3.0980   32.1530 H   0  0  0  0  0  0  0  0  0  0  0  0
   26.1220    3.3360   32.4660 H   0  0  0  0  0  0  0  0  0  0  0  0
   28.4150    4.4310   30.0650 H   0  0  0  0  0  0  0  0  0  0  0  0
   28.1250    5.9060   31.0720 H   0  0  0  0  0  0  0  0  0  0  0  0
   28.2370    4.2800   31.8570 H   0  0  0  0  0  0  0  0  0  0  0  0
   26.3200    5.9320   29.0170 H   0  0  0  0  0  0  0  0  0  0  0  0
   23.8890    5.7030   28.6990 H   0  0  0  0  0  0  0  0  0  0  0  0
  1  2  1  0  0  0  0
  1 24  1  0  0  0  0
  1 25  1  0  0  0  0
  1 26  1  0  0  0  0
  2  3  1  0  0  0  0
  2 27  1  0  0  0  0
  2 28  1  0  0  0  0
  3  4  1  0  0  0  0
  4 10  2  0  0  0  0
  4  5  1  0  0  0  0
  5  6  2  0  0  0  0
  6  7  1  0  0  0  0
  6 13  1  0  0  0  0
  7  8  2  0  0  0  0
  7 29  1  0  0  0  0
  8  9  1  0  0  0  0
  8 10  1  0  0  0  0
  9 30  1  0  0  0  0
  9 31  1  0  0  0  0
 10 11  1  0  0  0  0
 11 12  3  0  0  0  0
 13 14  1  0  0  0  0
 13 32  1  0  0  0  0
 14 15  2  0  0  0  0
 14 16  1  0  0  0  0
 16 17  1  0  0  0  0
 16 33  1  0  0  0  0
 16 34  1  0  0  0  0
 17 23  2  0  0  0  0
 17 18  1  0  0  0  0
 18 19  2  0  0  0  0
 18 35  1  0  0  0  0
 19 20  1  0  0  0  0
 19 36  1  0  0  0  0
 20 21  1  0  0  0  0
 20 22  2  0  0  0  0
 21 37  1  0  0  0  0
 21 38  1  0  0  0  0
 21 39  1  0  0  0  0
 22 23  1  0  0  0  0
 22 40  1  0  0  0  0
 23 41  1  0  0  0  0
M  END
$$$$
