20667(2qbp)
 OpenBabel02232411173D
Structure written by MMmdl.
 60 63  0  0  0  0  0  0  0  0999 V2000
   42.4930   17.9660   12.5860 O   0  0  0  0  0  0  0  0  0  0  0  0
   41.3540   17.6760   12.9700 C   0  0  0  0  0  0  0  0  0  0  0  0
   40.3170   18.3500   12.7860 O   0  5  0  0  0  0  0  0  0  0  0  0
   41.1410   16.3370   13.7380 C   0  0  0  0  0  0  0  0  0  0  0  0
   42.5130   15.8330   13.8270 O   0  0  0  0  0  0  0  0  0  0  0  0
   42.7230   14.9360   14.8240 C   0  0  0  0  0  0  0  0  0  0  0  0
   42.1330   13.6150   14.8620 C   0  0  0  0  0  0  0  0  0  0  0  0
   40.9170   13.0290   13.5160 Br  0  0  0  0  0  0  0  0  0  0  0  0
   42.5520   12.8290   15.9040 C   0  0  0  0  0  0  0  0  0  0  0  0
   42.1260   11.4870   16.2480 C   0  0  0  0  0  0  0  0  0  0  0  0
   42.9960   10.5240   16.8080 C   0  0  0  0  0  0  0  0  0  0  0  0
   42.5440    9.2240   17.0140 C   0  0  0  0  0  0  0  0  0  0  0  0
   41.2590    8.8150   16.6210 C   0  0  0  0  0  0  0  0  0  0  0  0
   40.3850    9.7660   16.0810 C   0  0  0  0  0  0  0  0  0  0  0  0
   39.0280    9.5220   15.6920 N   0  0  0  0  0  0  0  0  0  0  0  0
   38.5360    8.1580   15.3690 C   0  0  0  0  0  0  0  0  0  0  0  0
   37.0210    8.1520   15.7030 C   0  0  0  0  0  0  0  0  0  0  0  0
   36.3830    6.8100   15.3080 C   0  0  0  0  0  0  0  0  0  0  0  0
   36.5780    6.5870   13.8410 N   0  0  0  0  0  0  0  0  0  0  0  0
   35.4470    5.5760   13.0750 S   0  0  0  0  0  0  0  0  0  0  0  0
   35.4180    5.9380   11.6490 O   0  0  0  0  0  0  0  0  0  0  0  0
   34.1630    5.7640   13.7420 O   0  0  0  0  0  0  0  0  0  0  0  0
   35.9140    3.8980   13.3480 C   0  0  0  0  0  0  0  0  0  0  0  0
   36.7110    3.2400   12.2740 C   0  0  0  0  0  0  0  0  0  0  0  0
   38.0530    2.9040   12.5110 C   0  0  0  0  0  0  0  0  0  0  0  0
   38.7690    2.1650   11.5670 C   0  0  0  0  0  0  0  0  0  0  0  0
   38.1670    1.7840   10.3650 C   0  0  0  0  0  0  0  0  0  0  0  0
   36.8390    2.1470   10.1110 C   0  0  0  0  0  0  0  0  0  0  0  0
   36.1070    2.8590   11.0630 C   0  0  0  0  0  0  0  0  0  0  0  0
   38.0310    6.4830   13.5050 C   0  0  0  0  0  0  0  0  0  0  0  0
   38.7420    7.8000   13.8700 C   0  0  0  0  0  0  0  0  0  0  0  0
   40.8050   11.1120   15.9760 C   0  0  0  0  0  0  0  0  0  0  0  0
   43.7410   13.7160   16.8210 S   0  0  0  0  0  0  0  0  0  0  0  0
   43.6270   15.1550   15.8340 C   0  0  0  0  0  0  0  0  0  0  0  0
   44.4440   16.3980   16.1880 C   0  0  0  0  0  0  0  0  0  0  0  0
   45.1520   16.2850   17.2150 O   0  0  0  0  0  0  0  0  0  0  0  0
   44.3770   17.3850   15.4570 O   0  5  0  0  0  0  0  0  0  0  0  0
   40.5300   15.6310   13.1390 H   0  0  0  0  0  0  0  0  0  0  0  0
   40.6970   16.4810   14.7440 H   0  0  0  0  0  0  0  0  0  0  0  0
   44.0230   10.7740   17.0760 H   0  0  0  0  0  0  0  0  0  0  0  0
   43.2030    8.4840   17.4710 H   0  0  0  0  0  0  0  0  0  0  0  0
   40.9720    7.7720   16.7390 H   0  0  0  0  0  0  0  0  0  0  0  0
   38.7080   10.1870   14.9500 H   0  0  0  0  0  0  0  0  0  0  0  0
   39.0460    7.3860   16.0000 H   0  0  0  0  0  0  0  0  0  0  0  0
   36.8840    8.2960   16.8010 H   0  0  0  0  0  0  0  0  0  0  0  0
   36.5100    8.9730   15.1500 H   0  0  0  0  0  0  0  0  0  0  0  0
   36.8540    5.9770   15.9020 H   0  0  0  0  0  0  0  0  0  0  0  0
   35.2870    6.8440   15.5420 H   0  0  0  0  0  0  0  0  0  0  0  0
   36.4710    3.8160   14.3310 H   0  0  0  0  0  0  0  0  0  0  0  0
   34.9860    3.2750   13.5230 H   0  0  0  0  0  0  0  0  0  0  0  0
   38.5430    3.1940   13.4460 H   0  0  0  0  0  0  0  0  0  0  0  0
   39.8000    1.8790   11.7880 H   0  0  0  0  0  0  0  0  0  0  0  0
   38.7220    1.1960    9.6350 H   0  0  0  0  0  0  0  0  0  0  0  0
   36.3680    1.8460    9.1730 H   0  0  0  0  0  0  0  0  0  0  0  0
   35.0570    3.0920   10.8730 H   0  0  0  0  0  0  0  0  0  0  0  0
   38.5090    5.6400   14.0820 H   0  0  0  0  0  0  0  0  0  0  0  0
   38.1490    6.2870   12.4120 H   0  0  0  0  0  0  0  0  0  0  0  0
   38.3410    8.6250   13.2360 H   0  0  0  0  0  0  0  0  0  0  0  0
   39.8330    7.6730   13.6740 H   0  0  0  0  0  0  0  0  0  0  0  0
   40.0640   11.8560   15.6790 H   0  0  0  0  0  0  0  0  0  0  0  0
  1  2  2  0  0  0  0
  2  3  1  0  0  0  0
  2  4  1  0  0  0  0
  4  5  1  0  0  0  0
  4 38  1  0  0  0  0
  4 39  1  0  0  0  0
  5  6  1  0  0  0  0
  6 34  2  0  0  0  0
  6  7  1  0  0  0  0
  7  8  1  0  0  0  0
  7  9  2  0  0  0  0
  9 10  1  0  0  0  0
  9 33  1  0  0  0  0
 10 32  2  0  0  0  0
 10 11  1  0  0  0  0
 11 12  2  0  0  0  0
 11 40  1  0  0  0  0
 12 13  1  0  0  0  0
 12 41  1  0  0  0  0
 13 14  2  0  0  0  0
 13 42  1  0  0  0  0
 14 15  1  0  0  0  0
 14 32  1  0  0  0  0
 15 16  1  0  0  0  0
 15 43  1  0  0  0  0
 16 31  1  0  0  0  0
 16 17  1  0  0  0  0
 16 44  1  0  0  0  0
 17 18  1  0  0  0  0
 17 45  1  0  0  0  0
 17 46  1  0  0  0  0
 18 19  1  0  0  0  0
 18 47  1  0  0  0  0
 18 48  1  0  0  0  0
 19 20  1  0  0  0  0
 19 30  1  0  0  0  0
 20 21  2  0  0  0  0
 20 22  2  0  0  0  0
 20 23  1  0  0  0  0
 23 24  1  0  0  0  0
 23 49  1  0  0  0  0
 23 50  1  0  0  0  0
 24 29  2  0  0  0  0
 24 25  1  0  0  0  0
 25 26  2  0  0  0  0
 25 51  1  0  0  0  0
 26 27  1  0  0  0  0
 26 52  1  0  0  0  0
 27 28  2  0  0  0  0
 27 53  1  0  0  0  0
 28 29  1  0  0  0  0
 28 54  1  0  0  0  0
 29 55  1  0  0  0  0
 30 31  1  0  0  0  0
 30 56  1  0  0  0  0
 30 57  1  0  0  0  0
 31 58  1  0  0  0  0
 31 59  1  0  0  0  0
 32 60  1  0  0  0  0
 33 34  1  0  0  0  0
 34 35  1  0  0  0  0
 35 36  2  0  0  0  0
 35 37  1  0  0  0  0
M  CHG  2   3  -1  37  -1
M  END
$$$$
