p38a_2z
 OpenBabel02232411163D
Structure written by MMmdl.
 45 47  0  0  0  0  0  0  0  0999 V2000
   38.3110   36.5750   17.1310 C   0  0  0  0  0  0  0  0  0  0  0  0
   34.4810   35.0350   21.1370 C   0  0  0  0  0  0  0  0  0  0  0  0
   37.5320   36.1120   18.1890 C   0  0  0  0  0  0  0  0  0  0  0  0
   33.7390   39.0350   23.7660 C   0  0  0  0  0  0  0  0  0  0  0  0
   32.6600   38.9510   26.0940 C   0  0  0  0  0  0  0  0  0  0  0  0
   34.5870   37.9080   21.3850 C   0  0  0  0  0  0  0  0  0  0  0  0
   35.0590   37.2850   20.1770 C   0  0  0  0  0  0  0  0  0  0  0  0
   37.6590   36.7340   15.9010 C   0  0  0  0  0  0  0  0  0  0  0  0
   36.3110   36.4320   15.6970 C   0  0  0  0  0  0  0  0  0  0  0  0
   35.5530   35.9530   16.7710 C   0  0  0  0  0  0  0  0  0  0  0  0
   34.0980   37.1050   22.4560 C   0  0  0  0  0  0  0  0  0  0  0  0
   34.5890   39.3140   21.5920 C   0  0  0  0  0  0  0  0  0  0  0  0
   35.0300   35.9360   20.0890 C   0  0  0  0  0  0  0  0  0  0  0  0
   36.1710   35.7840   18.0130 C   0  0  0  0  0  0  0  0  0  0  0  0
   33.4650   34.9020   23.4430 C   0  0  0  0  0  0  0  0  0  0  0  0
   38.0660   35.9770   19.3950 F   0  0  0  0  0  0  0  0  0  0  0  0
   35.4650   35.1350   19.0340 O   0  0  0  0  0  0  0  0  0  0  0  0
   34.1910   39.8890   22.7360 N   0  0  0  0  0  0  0  0  0  0  0  0
   34.3940   33.8290   21.0520 O   0  0  0  0  0  0  0  0  0  0  0  0
   34.0370   35.7080   22.3280 N   0  0  0  0  0  0  0  0  0  0  0  0
   33.6900   37.6590   23.6430 N   0  0  0  0  0  0  0  0  0  0  0  0
   33.4000   39.6190   24.9620 N   0  0  0  0  0  0  0  0  0  0  0  0
   39.3640   36.8370   17.2640 H   0  0  0  0  0  0  0  0  0  0  0  0
   31.2380   38.5840   25.6310 C   0  0  0  0  0  0  0  0  0  0  0  0
   35.4310   37.9270   19.3760 H   0  0  0  0  0  0  0  0  0  0  0  0
   35.8370   36.5770   14.7240 H   0  0  0  0  0  0  0  0  0  0  0  0
   34.4900   35.7300   16.6330 H   0  0  0  0  0  0  0  0  0  0  0  0
   34.9240   39.9860   20.7830 H   0  0  0  0  0  0  0  0  0  0  0  0
   34.1170   34.9870   24.3520 H   0  0  0  0  0  0  0  0  0  0  0  0
   32.4380   35.2820   23.7010 H   0  0  0  0  0  0  0  0  0  0  0  0
   33.3870   33.8250   23.1430 H   0  0  0  0  0  0  0  0  0  0  0  0
   33.4590   40.6590   25.0370 H   0  0  0  0  0  0  0  0  0  0  0  0
   38.3530   37.2370   14.8830 F   0  0  0  0  0  0  0  0  0  0  0  0
   33.3790   37.6600   26.6170 C   0  0  0  0  0  0  0  0  0  0  0  0
   32.5930   39.9860   27.2330 C   0  0  0  0  0  0  0  0  0  0  0  0
   34.8050   37.7310   26.5090 O   0  0  0  0  0  0  0  0  0  0  0  0
   35.0180   37.6590   25.5510 H   0  0  0  0  0  0  0  0  0  0  0  0
   33.2000   37.5480   27.7130 H   0  0  0  0  0  0  0  0  0  0  0  0
   33.0130   36.7610   26.0670 H   0  0  0  0  0  0  0  0  0  0  0  0
   32.0250   39.5690   28.0950 H   0  0  0  0  0  0  0  0  0  0  0  0
   33.6140   40.2620   27.5840 H   0  0  0  0  0  0  0  0  0  0  0  0
   32.0750   40.9060   26.8920 H   0  0  0  0  0  0  0  0  0  0  0  0
   30.6620   38.1750   26.4930 H   0  0  0  0  0  0  0  0  0  0  0  0
   30.7030   39.4800   25.2480 H   0  0  0  0  0  0  0  0  0  0  0  0
   31.2570   37.8110   24.8300 H   0  0  0  0  0  0  0  0  0  0  0  0
  1  3  2  0  0  0  0
  1  8  1  0  0  0  0
  1 23  1  0  0  0  0
  2 13  1  0  0  0  0
  2 19  2  0  0  0  0
  2 20  1  0  0  0  0
  3 14  1  0  0  0  0
  3 16  1  0  0  0  0
  4 18  2  0  0  0  0
  4 21  1  0  0  0  0
  4 22  1  0  0  0  0
  5 22  1  0  0  0  0
  5 24  1  0  0  0  0
  5 34  1  0  0  0  0
  5 35  1  0  0  0  0
  6  7  1  0  0  0  0
  6 11  1  0  0  0  0
  6 12  2  0  0  0  0
  7 13  2  0  0  0  0
  7 25  1  0  0  0  0
  8  9  2  0  0  0  0
  8 33  1  0  0  0  0
  9 10  1  0  0  0  0
  9 26  1  0  0  0  0
 10 14  2  0  0  0  0
 10 27  1  0  0  0  0
 11 20  1  0  0  0  0
 11 21  2  0  0  0  0
 12 18  1  0  0  0  0
 12 28  1  0  0  0  0
 13 17  1  0  0  0  0
 14 17  1  0  0  0  0
 15 20  1  0  0  0  0
 15 29  1  0  0  0  0
 15 30  1  0  0  0  0
 15 31  1  0  0  0  0
 22 32  1  0  0  0  0
 24 43  1  0  0  0  0
 24 44  1  0  0  0  0
 24 45  1  0  0  0  0
 34 36  1  0  0  0  0
 34 38  1  0  0  0  0
 34 39  1  0  0  0  0
 35 40  1  0  0  0  0
 35 41  1  0  0  0  0
 35 42  1  0  0  0  0
 36 37  1  0  0  0  0
M  END
$$$$
