18638-1
 OpenBabel02232411163D
Structure written by MMmdl.
 52 53  0  0  0  0  0  0  0  0999 V2000
   23.9840   12.4700   30.3100 C   0  0  0  0  0  0  0  0  0  0  0  0
   23.5310   11.0280   30.4370 C   0  0  0  0  0  0  0  0  0  0  0  0
   22.2770   11.1410   31.2270 O   0  0  0  0  0  0  0  0  0  0  0  0
   21.6390   10.0090   31.5890 C   0  0  0  0  0  0  0  0  0  0  0  0
   22.1150    8.8100   31.1690 N   0  0  0  0  0  0  0  0  0  0  0  0
   21.3810    7.6840   31.5070 C   0  0  0  0  0  0  0  0  0  0  0  0
   20.2210    7.7430   32.2750 C   0  0  0  0  0  0  0  0  0  0  0  0
   19.7340    9.0020   32.7170 C   0  0  0  0  0  0  0  0  0  0  0  0
   18.5740    9.0620   33.4480 N   0  0  0  0  0  0  0  0  0  0  0  0
   20.4580   10.1880   32.3700 C   0  0  0  0  0  0  0  0  0  0  0  0
   20.0540   11.4930   32.7220 C   0  0  0  0  0  0  0  0  0  0  0  0
   19.7670   12.5880   32.9770 N   0  0  0  0  0  0  0  0  0  0  0  0
   21.9280    6.4950   30.9620 N   0  0  0  0  0  0  0  0  0  0  0  0
   21.2590    5.2550   30.8870 C   0  0  0  0  0  0  0  0  0  0  0  0
   20.1870    5.0530   31.4180 O   0  0  0  0  0  0  0  0  0  0  0  0
   21.9460    4.2260   30.0030 C   0  0  0  0  0  0  0  0  0  0  0  0
   23.3090    3.7850   30.4460 C   0  0  0  0  0  0  0  0  0  0  0  0
   24.4690    4.4760   29.9890 C   0  0  0  0  0  0  0  0  0  0  0  0
   24.1630    5.6110   29.2440 O   0  0  0  0  0  0  0  0  0  0  0  0
   25.2130    6.6040   29.0910 C   0  0  0  0  0  0  0  0  0  0  0  0
   25.7490    3.9850   30.2250 C   0  0  0  0  0  0  0  0  0  0  0  0
   25.9310    2.8170   30.9890 C   0  0  0  0  0  0  0  0  0  0  0  0
   27.5600    2.1830   31.1380 S   0  0  0  0  0  0  0  0  0  0  0  0
   28.5490    3.2880   31.0900 O   0  0  0  0  0  0  0  0  0  0  0  0
   27.6780    1.4300   32.4080 O   0  0  0  0  0  0  0  0  0  0  0  0
   27.7270    1.1400   29.7610 C   0  0  0  0  0  0  0  0  0  0  0  0
   24.7960    2.1900   31.5220 C   0  0  0  0  0  0  0  0  0  0  0  0
   23.4880    2.6540   31.2260 C   0  0  0  0  0  0  0  0  0  0  0  0
   25.0500    1.1330   32.3590 O   0  0  0  0  0  0  0  0  0  0  0  0
   23.9490    0.2320   32.6740 C   0  0  0  0  0  0  0  0  0  0  0  0
   24.9150   12.4970   29.6880 H   0  0  0  0  0  0  0  0  0  0  0  0
   23.2100   13.0900   29.8010 H   0  0  0  0  0  0  0  0  0  0  0  0
   24.2060   12.9160   31.3050 H   0  0  0  0  0  0  0  0  0  0  0  0
   23.2700   10.5740   29.4550 H   0  0  0  0  0  0  0  0  0  0  0  0
   24.2490   10.4010   31.0110 H   0  0  0  0  0  0  0  0  0  0  0  0
   19.6640    6.8380   32.5270 H   0  0  0  0  0  0  0  0  0  0  0  0
   18.0630    8.1990   33.7130 H   0  0  0  0  0  0  0  0  0  0  0  0
   18.1770    9.9540   33.7430 H   0  0  0  0  0  0  0  0  0  0  0  0
   22.8400    6.5940   30.4580 H   0  0  0  0  0  0  0  0  0  0  0  0
   21.2810    3.3240   29.9330 H   0  0  0  0  0  0  0  0  0  0  0  0
   22.0330    4.6800   28.9740 H   0  0  0  0  0  0  0  0  0  0  0  0
   24.6370    7.4810   28.7150 H   0  0  0  0  0  0  0  0  0  0  0  0
   25.6890    6.8260   30.0710 H   0  0  0  0  0  0  0  0  0  0  0  0
   25.9470    6.2440   28.3400 H   0  0  0  0  0  0  0  0  0  0  0  0
   26.6130    4.5020   29.7920 H   0  0  0  0  0  0  0  0  0  0  0  0
   27.6620    1.7070   28.7940 H   0  0  0  0  0  0  0  0  0  0  0  0
   28.7070    0.5970   29.7440 H   0  0  0  0  0  0  0  0  0  0  0  0
   26.9250    0.3580   29.7160 H   0  0  0  0  0  0  0  0  0  0  0  0
   22.6190    2.1080   31.5950 H   0  0  0  0  0  0  0  0  0  0  0  0
   23.5200   -0.1780   31.7350 H   0  0  0  0  0  0  0  0  0  0  0  0
   23.1910    0.7470   33.3020 H   0  0  0  0  0  0  0  0  0  0  0  0
   24.4710   -0.5670   33.2540 H   0  0  0  0  0  0  0  0  0  0  0  0
  1  2  1  0  0  0  0
  1 31  1  0  0  0  0
  1 32  1  0  0  0  0
  1 33  1  0  0  0  0
  2  3  1  0  0  0  0
  2 34  1  0  0  0  0
  2 35  1  0  0  0  0
  3  4  1  0  0  0  0
  4 10  2  0  0  0  0
  4  5  1  0  0  0  0
  5  6  2  0  0  0  0
  6  7  1  0  0  0  0
  6 13  1  0  0  0  0
  7  8  2  0  0  0  0
  7 36  1  0  0  0  0
  8  9  1  0  0  0  0
  8 10  1  0  0  0  0
  9 37  1  0  0  0  0
  9 38  1  0  0  0  0
 10 11  1  0  0  0  0
 11 12  3  0  0  0  0
 13 14  1  0  0  0  0
 13 39  1  0  0  0  0
 14 15  2  0  0  0  0
 14 16  1  0  0  0  0
 16 17  1  0  0  0  0
 16 40  1  0  0  0  0
 16 41  1  0  0  0  0
 17 28  2  0  0  0  0
 17 18  1  0  0  0  0
 18 19  1  0  0  0  0
 18 21  2  0  0  0  0
 19 20  1  0  0  0  0
 20 42  1  0  0  0  0
 20 43  1  0  0  0  0
 20 44  1  0  0  0  0
 21 22  1  0  0  0  0
 21 45  1  0  0  0  0
 22 23  1  0  0  0  0
 22 27  2  0  0  0  0
 23 24  2  0  0  0  0
 23 25  2  0  0  0  0
 23 26  1  0  0  0  0
 26 46  1  0  0  0  0
 26 47  1  0  0  0  0
 26 48  1  0  0  0  0
 27 28  1  0  0  0  0
 27 29  1  0  0  0  0
 28 49  1  0  0  0  0
 29 30  1  0  0  0  0
 30 50  1  0  0  0  0
 30 51  1  0  0  0  0
 30 52  1  0  0  0  0
M  END
$$$$
