p38a_2f
 OpenBabel02232411163D
Structure written by MMmdl.
 46 49  0  0  0  0  0  0  0  0999 V2000
   32.0290   39.3630   26.6950 C   0  0  0  0  0  0  0  0  0  0  0  0
   31.6150   38.7870   28.0550 C   0  0  0  0  0  0  0  0  0  0  0  0
   33.7640   39.3110   29.0300 C   0  0  0  0  0  0  0  0  0  0  0  0
   34.2770   39.9170   27.7170 C   0  0  0  0  0  0  0  0  0  0  0  0
   37.9650   36.0990   17.7870 C   0  0  0  0  0  0  0  0  0  0  0  0
   32.3270   39.4180   29.1430 O   0  0  0  0  0  0  0  0  0  0  0  0
   34.2980   35.1590   21.5390 C   0  0  0  0  0  0  0  0  0  0  0  0
   37.0040   35.8790   18.7770 C   0  0  0  0  0  0  0  0  0  0  0  0
   34.0900   39.2870   24.0640 C   0  0  0  0  0  0  0  0  0  0  0  0
   33.5610   39.2470   26.5250 C   0  0  0  0  0  0  0  0  0  0  0  0
   34.4530   38.0380   21.6360 C   0  0  0  0  0  0  0  0  0  0  0  0
   34.6500   37.3630   20.3880 C   0  0  0  0  0  0  0  0  0  0  0  0
   37.7010   35.9930   16.4200 C   0  0  0  0  0  0  0  0  0  0  0  0
   36.4000   35.6600   16.0220 C   0  0  0  0  0  0  0  0  0  0  0  0
   35.3980   35.4320   16.9680 C   0  0  0  0  0  0  0  0  0  0  0  0
   34.2030   37.2880   22.8250 C   0  0  0  0  0  0  0  0  0  0  0  0
   34.4820   39.4560   21.7560 C   0  0  0  0  0  0  0  0  0  0  0  0
   34.5870   36.0080   20.3620 C   0  0  0  0  0  0  0  0  0  0  0  0
   35.7180   35.5580   18.3280 C   0  0  0  0  0  0  0  0  0  0  0  0
   33.9040   35.1360   24.0400 C   0  0  0  0  0  0  0  0  0  0  0  0
   37.2380   35.9890   19.8350 H   0  0  0  0  0  0  0  0  0  0  0  0
   34.6680   35.2460   19.1950 O   0  0  0  0  0  0  0  0  0  0  0  0
   34.3080   40.0900   22.9220 N   0  0  0  0  0  0  0  0  0  0  0  0
   34.1850   33.9520   21.5410 O   0  0  0  0  0  0  0  0  0  0  0  0
   34.1390   35.8890   22.7760 N   0  0  0  0  0  0  0  0  0  0  0  0
   34.0130   37.9080   24.0360 N   0  0  0  0  0  0  0  0  0  0  0  0
   34.0010   39.9340   25.2730 N   0  0  0  0  0  0  0  0  0  0  0  0
   31.5080   38.8000   25.8850 H   0  0  0  0  0  0  0  0  0  0  0  0
   31.7330   40.4370   26.6290 H   0  0  0  0  0  0  0  0  0  0  0  0
   30.5560   39.0320   28.2980 H   0  0  0  0  0  0  0  0  0  0  0  0
   31.7990   37.6880   28.0920 H   0  0  0  0  0  0  0  0  0  0  0  0
   34.0550   38.2380   29.1130 H   0  0  0  0  0  0  0  0  0  0  0  0
   34.1180   39.8990   29.9090 H   0  0  0  0  0  0  0  0  0  0  0  0
   34.0910   41.0180   27.7060 H   0  0  0  0  0  0  0  0  0  0  0  0
   35.3800   39.7530   27.6400 H   0  0  0  0  0  0  0  0  0  0  0  0
   39.1960   36.4260   18.1730 F   0  0  0  0  0  0  0  0  0  0  0  0
   33.8560   38.1610   26.4740 H   0  0  0  0  0  0  0  0  0  0  0  0
   34.8550   37.9620   19.4950 H   0  0  0  0  0  0  0  0  0  0  0  0
   36.1580   35.6030   14.9590 H   0  0  0  0  0  0  0  0  0  0  0  0
   34.3770   35.2140   16.6470 H   0  0  0  0  0  0  0  0  0  0  0  0
   34.6430   40.0770   20.8590 H   0  0  0  0  0  0  0  0  0  0  0  0
   34.6980   35.3930   24.7930 H   0  0  0  0  0  0  0  0  0  0  0  0
   32.9050   35.4130   24.4740 H   0  0  0  0  0  0  0  0  0  0  0  0
   33.9270   34.0330   23.8460 H   0  0  0  0  0  0  0  0  0  0  0  0
   33.9380   40.9720   25.2910 H   0  0  0  0  0  0  0  0  0  0  0  0
   38.4670   36.2020   15.6760 H   0  0  0  0  0  0  0  0  0  0  0  0
  1  2  1  0  0  0  0
  1 10  1  0  0  0  0
  1 28  1  0  0  0  0
  1 29  1  0  0  0  0
  2  6  1  0  0  0  0
  2 30  1  0  0  0  0
  2 31  1  0  0  0  0
  3  4  1  0  0  0  0
  3  6  1  0  0  0  0
  3 32  1  0  0  0  0
  3 33  1  0  0  0  0
  4 10  1  0  0  0  0
  4 34  1  0  0  0  0
  4 35  1  0  0  0  0
  5  8  2  0  0  0  0
  5 13  1  0  0  0  0
  5 36  1  0  0  0  0
  7 18  1  0  0  0  0
  7 24  2  0  0  0  0
  7 25  1  0  0  0  0
  8 19  1  0  0  0  0
  8 21  1  0  0  0  0
  9 23  2  0  0  0  0
  9 26  1  0  0  0  0
  9 27  1  0  0  0  0
 10 27  1  0  0  0  0
 10 37  1  0  0  0  0
 11 12  1  0  0  0  0
 11 16  1  0  0  0  0
 11 17  2  0  0  0  0
 12 18  2  0  0  0  0
 12 38  1  0  0  0  0
 13 14  2  0  0  0  0
 13 46  1  0  0  0  0
 14 15  1  0  0  0  0
 14 39  1  0  0  0  0
 15 19  2  0  0  0  0
 15 40  1  0  0  0  0
 16 25  1  0  0  0  0
 16 26  2  0  0  0  0
 17 23  1  0  0  0  0
 17 41  1  0  0  0  0
 18 22  1  0  0  0  0
 19 22  1  0  0  0  0
 20 25  1  0  0  0  0
 20 42  1  0  0  0  0
 20 43  1  0  0  0  0
 20 44  1  0  0  0  0
 27 45  1  0  0  0  0
M  END
$$$$
