46
 OpenBabel02232411163D
Structure written by MMmdl.
 45 48  0  0  0  0  0  0  0  0999 V2000
    3.5370  -48.4020    7.1550 O   0  0  0  0  0  0  0  0  0  0  0  0
    3.1410  -49.3860    6.5150 C   0  0  0  0  0  0  0  0  0  0  0  0
    3.8480  -50.2480    5.9570 O   0  5  0  0  0  0  0  0  0  0  0  0
    1.6220  -49.6130    6.3920 C   0  0  0  0  0  0  0  0  0  0  0  0
   -0.3070  -50.8370    6.5420 C   0  0  0  0  0  0  0  0  0  0  0  0
   -1.2880  -51.8160    6.7780 C   0  0  0  0  0  0  0  0  0  0  0  0
   -2.5950  -51.5060    6.4330 C   0  0  0  0  0  0  0  0  0  0  0  0
   -2.9270  -50.2530    5.8630 C   0  0  0  0  0  0  0  0  0  0  0  0
   -1.9630  -49.2820    5.6300 C   0  0  0  0  0  0  0  0  0  0  0  0
   -0.6270  -49.5520    5.9700 C   0  0  0  0  0  0  0  0  0  0  0  0
    0.6080  -48.7990    5.9020 C   0  0  0  0  0  0  0  0  0  0  0  0
    0.6960  -47.3980    5.4110 C   0  0  0  0  0  0  0  0  0  0  0  0
    0.6530  -46.3670    6.5530 C   0  0  0  0  0  0  0  0  0  0  0  0
   -0.6550  -46.3900    7.3370 C   0  0  0  0  0  0  0  0  0  0  0  0
   -1.6510  -45.8360    6.4010 O   0  0  0  0  0  0  0  0  0  0  0  0
   -2.9090  -45.6100    6.8840 C   0  0  0  0  0  0  0  0  0  0  0  0
   -5.0120  -44.4760    6.4500 C   0  0  0  0  0  0  0  0  0  0  0  0
   -3.7180  -44.8170    6.0430 C   0  0  0  0  0  0  0  0  0  0  0  0
   -1.0400  -52.7810    7.2200 H   0  0  0  0  0  0  0  0  0  0  0  0
   -3.3900  -52.2320    6.6040 H   0  0  0  0  0  0  0  0  0  0  0  0
   -3.9690  -50.0580    5.6090 H   0  0  0  0  0  0  0  0  0  0  0  0
   -2.2480  -48.3230    5.1950 H   0  0  0  0  0  0  0  0  0  0  0  0
   -0.1770  -47.1940    4.7370 H   0  0  0  0  0  0  0  0  0  0  0  0
    1.6360  -47.2380    4.8320 H   0  0  0  0  0  0  0  0  0  0  0  0
    0.7780  -45.3460    6.1240 H   0  0  0  0  0  0  0  0  0  0  0  0
    1.4820  -46.5760    7.2720 H   0  0  0  0  0  0  0  0  0  0  0  0
   -0.6250  -45.7110    8.2160 H   0  0  0  0  0  0  0  0  0  0  0  0
   -0.9880  -47.4190    7.5900 H   0  0  0  0  0  0  0  0  0  0  0  0
   -3.3400  -44.4700    5.0870 H   0  0  0  0  0  0  0  0  0  0  0  0
   -3.3840  -46.1150    8.1130 C   0  0  0  0  0  0  0  0  0  0  0  0
   -5.6430  -43.8570    5.8130 H   0  0  0  0  0  0  0  0  0  0  0  0
   -2.7930  -46.7580    8.7560 H   0  0  0  0  0  0  0  0  0  0  0  0
    1.0750  -50.8490    6.7910 N   0  0  0  0  0  0  0  0  0  0  0  0
   -6.6330  -45.2350    9.7790 C   0  0  0  0  0  0  0  0  0  0  0  0
   -5.3990  -46.1720    9.7400 C   0  0  0  0  0  0  0  0  0  0  0  0
   -4.6750  -45.7730    8.4830 C   0  0  0  0  0  0  0  0  0  0  0  0
   -5.4830  -44.9400    7.6730 C   0  0  0  0  0  0  0  0  0  0  0  0
   -6.8070  -44.6790    8.3370 C   0  0  0  0  0  0  0  0  0  0  0  0
   -7.0490  -43.5980    8.3430 H   0  0  0  0  0  0  0  0  0  0  0  0
   -7.6220  -45.2270    7.8080 H   0  0  0  0  0  0  0  0  0  0  0  0
   -7.5360  -45.7850   10.1050 H   0  0  0  0  0  0  0  0  0  0  0  0
   -6.4470  -44.3990   10.4870 H   0  0  0  0  0  0  0  0  0  0  0  0
   -5.7220  -47.2380    9.6750 H   0  0  0  0  0  0  0  0  0  0  0  0
   -4.7650  -46.0480   10.6380 H   0  0  0  0  0  0  0  0  0  0  0  0
    1.5650  -51.6470    7.1780 H   0  0  0  0  0  0  0  0  0  0  0  0
  1  2  2  0  0  0  0
  2  3  1  0  0  0  0
  2  4  1  0  0  0  0
  4 11  2  0  0  0  0
  4 33  1  0  0  0  0
  5  6  2  0  0  0  0
  5 10  1  0  0  0  0
  5 33  1  0  0  0  0
  6  7  1  0  0  0  0
  6 19  1  0  0  0  0
  7  8  2  0  0  0  0
  7 20  1  0  0  0  0
  8  9  1  0  0  0  0
  8 21  1  0  0  0  0
  9 10  2  0  0  0  0
  9 22  1  0  0  0  0
 10 11  1  0  0  0  0
 11 12  1  0  0  0  0
 12 23  1  0  0  0  0
 12 24  1  0  0  0  0
 12 13  1  0  0  0  0
 13 14  1  0  0  0  0
 13 25  1  0  0  0  0
 13 26  1  0  0  0  0
 14 15  1  0  0  0  0
 14 27  1  0  0  0  0
 14 28  1  0  0  0  0
 15 16  1  0  0  0  0
 16 18  2  0  0  0  0
 16 30  1  0  0  0  0
 17 18  1  0  0  0  0
 17 31  1  0  0  0  0
 17 37  2  0  0  0  0
 18 29  1  0  0  0  0
 30 32  1  0  0  0  0
 30 36  2  0  0  0  0
 33 45  1  0  0  0  0
 34 35  1  0  0  0  0
 34 38  1  0  0  0  0
 34 41  1  0  0  0  0
 34 42  1  0  0  0  0
 35 36  1  0  0  0  0
 35 43  1  0  0  0  0
 35 44  1  0  0  0  0
 36 37  1  0  0  0  0
 37 38  1  0  0  0  0
 38 39  1  0  0  0  0
 38 40  1  0  0  0  0
M  CHG  1   3  -1
M  END
$$$$
