ejm_47
 OpenBabel02232411173D
Structure written by MMmdl.
 39 41  0  0  0  0  0  0  0  0999 V2000
   -1.5470   21.5110  -27.6120 C   0  0  0  0  0  0  0  0  0  0  0  0
   -1.0680   22.5910  -28.3570 C   0  0  0  0  0  0  0  0  0  0  0  0
   -1.8750   23.1480  -29.3510 C   0  0  0  0  0  0  0  0  0  0  0  0
   -3.1520   22.6470  -29.6350 C   0  0  0  0  0  0  0  0  0  0  0  0
   -3.6100   21.5670  -28.8640 C   0  0  0  0  0  0  0  0  0  0  0  0
   -2.8250   21.0000  -27.8590 C   0  0  0  0  0  0  0  0  0  0  0  0
   -5.1680   20.9230  -29.1700 Cl  0  0  0  0  0  0  0  0  0  0  0  0
   -4.0230   23.1710  -30.7410 C   0  0  0  0  0  0  0  0  0  0  0  0
   -4.4270   22.4680  -31.6420 O   0  0  0  0  0  0  0  0  0  0  0  0
   -4.3430   24.5370  -30.6020 N   0  0  0  0  0  0  0  0  0  0  0  0
   -5.1680   25.3130  -31.4650 C   0  0  0  0  0  0  0  0  0  0  0  0
   -5.8420   24.7910  -32.5800 C   0  0  0  0  0  0  0  0  0  0  0  0
   -6.6620   25.6530  -33.3240 C   0  0  0  0  0  0  0  0  0  0  0  0
   -6.8220   26.9700  -33.0390 N   0  0  0  0  0  0  0  0  0  0  0  0
   -6.1400   27.4730  -31.9480 C   0  0  0  0  0  0  0  0  0  0  0  0
   -5.3130   26.6780  -31.1420 C   0  0  0  0  0  0  0  0  0  0  0  0
   -6.3590   28.8590  -31.6950 N   0  0  0  0  0  0  0  0  0  0  0  0
   -5.5540   29.6770  -30.8570 C   0  0  0  0  0  0  0  0  0  0  0  0
   -4.6200   29.2000  -30.2390 O   0  0  0  0  0  0  0  0  0  0  0  0
   -1.2590   24.4920  -30.2180 Cl  0  0  0  0  0  0  0  0  0  0  0  0
   -0.9210   21.0680  -26.8290 H   0  0  0  0  0  0  0  0  0  0  0  0
   -0.0730   22.9930  -28.1450 H   0  0  0  0  0  0  0  0  0  0  0  0
   -3.1930   20.1710  -27.2520 H   0  0  0  0  0  0  0  0  0  0  0  0
   -3.9360   25.0430  -29.7940 H   0  0  0  0  0  0  0  0  0  0  0  0
   -5.7600   23.7390  -32.8670 H   0  0  0  0  0  0  0  0  0  0  0  0
   -7.2250   25.2710  -34.1930 H   0  0  0  0  0  0  0  0  0  0  0  0
   -4.7850   27.1090  -30.2840 H   0  0  0  0  0  0  0  0  0  0  0  0
   -7.2240   29.2640  -32.1140 H   0  0  0  0  0  0  0  0  0  0  0  0
   -5.9510   31.1350  -30.8070 C   0  0  0  0  0  0  0  0  0  0  0  0
   -5.6060   31.8450  -29.4650 C   0  0  0  0  0  0  0  0  0  0  0  0
   -4.6050   32.7710  -30.1990 C   0  0  0  0  0  0  0  0  0  0  0  0
   -4.9500   32.0780  -31.5380 C   0  0  0  0  0  0  0  0  0  0  0  0
   -6.4700   32.3810  -29.0300 H   0  0  0  0  0  0  0  0  0  0  0  0
   -5.1300   31.1990  -28.7050 H   0  0  0  0  0  0  0  0  0  0  0  0
   -4.8810   33.8420  -30.1620 H   0  0  0  0  0  0  0  0  0  0  0  0
   -3.5550   32.6460  -29.8780 H   0  0  0  0  0  0  0  0  0  0  0  0
   -5.4620   32.7480  -32.2520 H   0  0  0  0  0  0  0  0  0  0  0  0
   -4.1020   31.5640  -32.0180 H   0  0  0  0  0  0  0  0  0  0  0  0
   -7.0020   31.3050  -31.1210 H   0  0  0  0  0  0  0  0  0  0  0  0
  1  2  2  0  0  0  0
  1  6  1  0  0  0  0
  1 21  1  0  0  0  0
  2  3  1  0  0  0  0
  2 22  1  0  0  0  0
  3  4  2  0  0  0  0
  3 20  1  0  0  0  0
  4  5  1  0  0  0  0
  4  8  1  0  0  0  0
  5  6  2  0  0  0  0
  5  7  1  0  0  0  0
  6 23  1  0  0  0  0
  8  9  2  0  0  0  0
  8 10  1  0  0  0  0
 10 11  1  0  0  0  0
 10 24  1  0  0  0  0
 11 12  2  0  0  0  0
 11 16  1  0  0  0  0
 12 13  1  0  0  0  0
 12 25  1  0  0  0  0
 13 14  2  0  0  0  0
 13 26  1  0  0  0  0
 14 15  1  0  0  0  0
 15 16  2  0  0  0  0
 15 17  1  0  0  0  0
 16 27  1  0  0  0  0
 17 18  1  0  0  0  0
 17 28  1  0  0  0  0
 18 19  2  0  0  0  0
 18 29  1  0  0  0  0
 29 30  1  0  0  0  0
 29 32  1  0  0  0  0
 29 39  1  0  0  0  0
 30 31  1  0  0  0  0
 30 33  1  0  0  0  0
 30 34  1  0  0  0  0
 31 32  1  0  0  0  0
 31 35  1  0  0  0  0
 31 36  1  0  0  0  0
 32 37  1  0  0  0  0
 32 38  1  0  0  0  0
M  END
$$$$
