p38a_3flw
 OpenBabel02232411163D
Structure written by MMmdl.
 49 51  0  0  0  0  0  0  0  0999 V2000
   36.3500   36.0070   15.9060 C   0  0  0  0  0  0  0  0  0  0  0  0
   37.6480   36.4850   16.1300 C   0  0  0  0  0  0  0  0  0  0  0  0
   34.7570   38.0710   27.0370 C   0  0  0  0  0  0  0  0  0  0  0  0
   34.0680   36.7810   27.5080 C   0  0  0  0  0  0  0  0  0  0  0  0
   33.5150   40.2190   27.6830 C   0  0  0  0  0  0  0  0  0  0  0  0
   33.8970   34.9400   23.9040 C   0  0  0  0  0  0  0  0  0  0  0  0
   34.4210   35.0850   16.9050 F   0  0  0  0  0  0  0  0  0  0  0  0
   35.6450   35.5820   17.0270 C   0  0  0  0  0  0  0  0  0  0  0  0
   38.3210   36.9730   15.0910 F   0  0  0  0  0  0  0  0  0  0  0  0
   38.2530   36.5100   17.3900 C   0  0  0  0  0  0  0  0  0  0  0  0
   37.5110   36.1080   18.5060 C   0  0  0  0  0  0  0  0  0  0  0  0
   36.2050   35.6470   18.3200 C   0  0  0  0  0  0  0  0  0  0  0  0
   35.4180   35.0850   19.3310 O   0  0  0  0  0  0  0  0  0  0  0  0
   35.0790   35.9200   20.3940 C   0  0  0  0  0  0  0  0  0  0  0  0
   35.1640   37.2680   20.4640 C   0  0  0  0  0  0  0  0  0  0  0  0
   34.7650   37.9200   21.6830 C   0  0  0  0  0  0  0  0  0  0  0  0
   34.7570   39.3340   21.8250 C   0  0  0  0  0  0  0  0  0  0  0  0
   34.4810   39.9490   22.9820 N   0  0  0  0  0  0  0  0  0  0  0  0
   34.5260   35.0680   21.4790 C   0  0  0  0  0  0  0  0  0  0  0  0
   34.2900   33.8840   21.3920 O   0  0  0  0  0  0  0  0  0  0  0  0
   34.2650   35.7600   22.7180 N   0  0  0  0  0  0  0  0  0  0  0  0
   34.3710   37.1560   22.8220 C   0  0  0  0  0  0  0  0  0  0  0  0
   34.0780   37.7570   24.0260 N   0  0  0  0  0  0  0  0  0  0  0  0
   34.2080   39.1320   24.1010 C   0  0  0  0  0  0  0  0  0  0  0  0
   34.1080   39.7860   25.3080 N   0  0  0  0  0  0  0  0  0  0  0  0
   33.7270   39.1360   26.6050 C   0  0  0  0  0  0  0  0  0  0  0  0
   34.7390   41.0860   28.0150 C   0  0  0  0  0  0  0  0  0  0  0  0
   34.4680   41.9280   29.1520 O   0  0  0  0  0  0  0  0  0  0  0  0
   33.0950   36.2970   26.5660 O   0  0  0  0  0  0  0  0  0  0  0  0
   35.9090   35.9950   14.9060 H   0  0  0  0  0  0  0  0  0  0  0  0
   35.3870   38.4520   27.8760 H   0  0  0  0  0  0  0  0  0  0  0  0
   35.4490   37.8360   26.1930 H   0  0  0  0  0  0  0  0  0  0  0  0
   34.8220   35.9700   27.6400 H   0  0  0  0  0  0  0  0  0  0  0  0
   33.4850   36.9500   28.4430 H   0  0  0  0  0  0  0  0  0  0  0  0
   32.6850   40.8920   27.3570 H   0  0  0  0  0  0  0  0  0  0  0  0
   33.1830   39.6940   28.6160 H   0  0  0  0  0  0  0  0  0  0  0  0
   32.8300   35.1380   24.1900 H   0  0  0  0  0  0  0  0  0  0  0  0
   34.0080   33.8470   23.6680 H   0  0  0  0  0  0  0  0  0  0  0  0
   34.5770   35.1880   24.7630 H   0  0  0  0  0  0  0  0  0  0  0  0
   39.2800   36.8650   17.5070 H   0  0  0  0  0  0  0  0  0  0  0  0
   37.9500   36.1770   19.5030 H   0  0  0  0  0  0  0  0  0  0  0  0
   35.5350   37.8890   19.6450 H   0  0  0  0  0  0  0  0  0  0  0  0
   34.9790   39.9730   20.9540 H   0  0  0  0  0  0  0  0  0  0  0  0
   34.0330   40.8250   25.2950 H   0  0  0  0  0  0  0  0  0  0  0  0
   32.7220   38.6380   26.4520 H   0  0  0  0  0  0  0  0  0  0  0  0
   35.6100   40.4830   28.3520 H   0  0  0  0  0  0  0  0  0  0  0  0
   35.0080   41.7450   27.1600 H   0  0  0  0  0  0  0  0  0  0  0  0
   33.5850   42.3940   28.9930 H   0  0  0  0  0  0  0  0  0  0  0  0
   33.2970   36.6890   25.6780 H   0  0  0  0  0  0  0  0  0  0  0  0
  1  2  2  0  0  0  0
  1  8  1  0  0  0  0
  1 30  1  0  0  0  0
  2  9  1  0  0  0  0
  2 10  1  0  0  0  0
  3  4  1  0  0  0  0
  3 26  1  0  0  0  0
  3 31  1  0  0  0  0
  3 32  1  0  0  0  0
  4 29  1  0  0  0  0
  4 33  1  0  0  0  0
  4 34  1  0  0  0  0
  5 26  1  0  0  0  0
  5 27  1  0  0  0  0
  5 35  1  0  0  0  0
  5 36  1  0  0  0  0
  6 21  1  0  0  0  0
  6 37  1  0  0  0  0
  6 38  1  0  0  0  0
  6 39  1  0  0  0  0
  7  8  1  0  0  0  0
  8 12  2  0  0  0  0
 10 11  2  0  0  0  0
 10 40  1  0  0  0  0
 11 12  1  0  0  0  0
 11 41  1  0  0  0  0
 12 13  1  0  0  0  0
 13 14  1  0  0  0  0
 14 15  2  0  0  0  0
 14 19  1  0  0  0  0
 15 16  1  0  0  0  0
 15 42  1  0  0  0  0
 16 17  2  0  0  0  0
 16 22  1  0  0  0  0
 17 18  1  0  0  0  0
 17 43  1  0  0  0  0
 18 24  2  0  0  0  0
 19 20  2  0  0  0  0
 19 21  1  0  0  0  0
 21 22  1  0  0  0  0
 22 23  2  0  0  0  0
 23 24  1  0  0  0  0
 24 25  1  0  0  0  0
 25 26  1  0  0  0  0
 25 44  1  0  0  0  0
 26 45  1  0  0  0  0
 27 28  1  0  0  0  0
 27 46  1  0  0  0  0
 27 47  1  0  0  0  0
 28 48  1  0  0  0  0
 29 49  1  0  0  0  0
M  END
$$$$
