p38a_2aa
 OpenBabel02232411163D
Structure written by MMmdl.
 43 45  0  0  0  0  0  0  0  0999 V2000
   38.3080   36.5640   17.1290 C   0  0  0  0  0  0  0  0  0  0  0  0
   34.4650   35.0760   21.1300 C   0  0  0  0  0  0  0  0  0  0  0  0
   37.5240   36.0960   18.1790 C   0  0  0  0  0  0  0  0  0  0  0  0
   33.7550   39.1490   23.6480 C   0  0  0  0  0  0  0  0  0  0  0  0
   32.6410   39.0480   25.8970 C   0  0  0  0  0  0  0  0  0  0  0  0
   34.5950   37.9530   21.3110 C   0  0  0  0  0  0  0  0  0  0  0  0
   35.0640   37.2980   20.1200 C   0  0  0  0  0  0  0  0  0  0  0  0
   37.6620   36.7300   15.8960 C   0  0  0  0  0  0  0  0  0  0  0  0
   36.3150   36.4290   15.6840 C   0  0  0  0  0  0  0  0  0  0  0  0
   35.5520   35.9440   16.7520 C   0  0  0  0  0  0  0  0  0  0  0  0
   34.0990   37.1780   22.4010 C   0  0  0  0  0  0  0  0  0  0  0  0
   34.6060   39.3630   21.4750 C   0  0  0  0  0  0  0  0  0  0  0  0
   35.0180   35.9480   20.0590 C   0  0  0  0  0  0  0  0  0  0  0  0
   36.1640   35.7680   17.9960 C   0  0  0  0  0  0  0  0  0  0  0  0
   33.5380   34.9900   23.4710 C   0  0  0  0  0  0  0  0  0  0  0  0
   38.0510   35.9560   19.3890 F   0  0  0  0  0  0  0  0  0  0  0  0
   35.4490   35.1280   19.0180 O   0  0  0  0  0  0  0  0  0  0  0  0
   34.2120   39.9730   22.6060 N   0  0  0  0  0  0  0  0  0  0  0  0
   34.3590   33.8710   21.0750 O   0  0  0  0  0  0  0  0  0  0  0  0
   34.0360   35.7810   22.3110 N   0  0  0  0  0  0  0  0  0  0  0  0
   33.6590   37.7740   23.5580 N   0  0  0  0  0  0  0  0  0  0  0  0
   33.4110   39.7570   24.8370 N   0  0  0  0  0  0  0  0  0  0  0  0
   39.3610   36.8260   17.2690 H   0  0  0  0  0  0  0  0  0  0  0  0
   32.7470   39.8860   27.2000 C   0  0  0  0  0  0  0  0  0  0  0  0
   35.4470   37.9190   19.3080 H   0  0  0  0  0  0  0  0  0  0  0  0
   35.8460   36.5820   14.7100 H   0  0  0  0  0  0  0  0  0  0  0  0
   34.4900   35.7230   16.6080 H   0  0  0  0  0  0  0  0  0  0  0  0
   34.9380   40.0100   20.6470 H   0  0  0  0  0  0  0  0  0  0  0  0
   33.9710   35.3890   24.4290 H   0  0  0  0  0  0  0  0  0  0  0  0
   32.4200   35.0530   23.5240 H   0  0  0  0  0  0  0  0  0  0  0  0
   33.8440   33.9150   23.3630 H   0  0  0  0  0  0  0  0  0  0  0  0
   33.4160   40.7950   24.8970 H   0  0  0  0  0  0  0  0  0  0  0  0
   38.3600   37.2410   14.8840 F   0  0  0  0  0  0  0  0  0  0  0  0
   31.1550   38.8590   25.5010 C   0  0  0  0  0  0  0  0  0  0  0  0
   30.9200   37.6110   24.8500 O   0  0  0  0  0  0  0  0  0  0  0  0
   31.6570   37.4090   24.2280 H   0  0  0  0  0  0  0  0  0  0  0  0
   30.5210   38.7880   26.4220 H   0  0  0  0  0  0  0  0  0  0  0  0
   30.8050   39.6810   24.8370 H   0  0  0  0  0  0  0  0  0  0  0  0
   31.9530   39.2720   28.2210 O   0  0  0  0  0  0  0  0  0  0  0  0
   33.8090   39.9770   27.5290 H   0  0  0  0  0  0  0  0  0  0  0  0
   32.2800   40.8910   27.0830 H   0  0  0  0  0  0  0  0  0  0  0  0
   32.4130   38.4560   28.5510 H   0  0  0  0  0  0  0  0  0  0  0  0
   33.1160   38.0410   26.0770 H   0  0  0  0  0  0  0  0  0  0  0  0
  1  3  2  0  0  0  0
  1  8  1  0  0  0  0
  1 23  1  0  0  0  0
  2 13  1  0  0  0  0
  2 19  2  0  0  0  0
  2 20  1  0  0  0  0
  3 14  1  0  0  0  0
  3 16  1  0  0  0  0
  4 18  2  0  0  0  0
  4 21  1  0  0  0  0
  4 22  1  0  0  0  0
  5 22  1  0  0  0  0
  5 24  1  0  0  0  0
  5 34  1  0  0  0  0
  5 43  1  0  0  0  0
  6  7  1  0  0  0  0
  6 11  1  0  0  0  0
  6 12  2  0  0  0  0
  7 13  2  0  0  0  0
  7 25  1  0  0  0  0
  8  9  2  0  0  0  0
  8 33  1  0  0  0  0
  9 10  1  0  0  0  0
  9 26  1  0  0  0  0
 10 14  2  0  0  0  0
 10 27  1  0  0  0  0
 11 20  1  0  0  0  0
 11 21  2  0  0  0  0
 12 18  1  0  0  0  0
 12 28  1  0  0  0  0
 13 17  1  0  0  0  0
 14 17  1  0  0  0  0
 15 20  1  0  0  0  0
 15 29  1  0  0  0  0
 15 30  1  0  0  0  0
 15 31  1  0  0  0  0
 22 32  1  0  0  0  0
 24 39  1  0  0  0  0
 24 40  1  0  0  0  0
 24 41  1  0  0  0  0
 34 35  1  0  0  0  0
 34 37  1  0  0  0  0
 34 38  1  0  0  0  0
 35 36  1  0  0  0  0
 39 42  1  0  0  0  0
M  END
$$$$
