p38a_2n
 OpenBabel02232411163D
Structure written by MMmdl.
 53 56  0  0  0  0  0  0  0  0999 V2000
   38.3030   36.5500   17.1470 C   0  0  0  0  0  0  0  0  0  0  0  0
   34.6000   35.0300   21.2020 C   0  0  0  0  0  0  0  0  0  0  0  0
   37.5140   36.0820   18.1950 C   0  0  0  0  0  0  0  0  0  0  0  0
   33.9580   39.0900   23.7630 C   0  0  0  0  0  0  0  0  0  0  0  0
   34.6700   37.8960   21.3810 C   0  0  0  0  0  0  0  0  0  0  0  0
   35.0700   37.2590   20.1560 C   0  0  0  0  0  0  0  0  0  0  0  0
   37.6660   36.7030   15.9080 C   0  0  0  0  0  0  0  0  0  0  0  0
   36.3240   36.3860   15.6880 C   0  0  0  0  0  0  0  0  0  0  0  0
   35.5560   35.9040   16.7530 C   0  0  0  0  0  0  0  0  0  0  0  0
   34.3120   37.1190   22.5240 C   0  0  0  0  0  0  0  0  0  0  0  0
   34.6260   39.3090   21.5190 C   0  0  0  0  0  0  0  0  0  0  0  0
   35.0610   35.9090   20.0950 C   0  0  0  0  0  0  0  0  0  0  0  0
   36.1570   35.7430   18.0040 C   0  0  0  0  0  0  0  0  0  0  0  0
   38.0360   35.9540   19.4080 F   0  0  0  0  0  0  0  0  0  0  0  0
   35.4310   35.1050   19.0180 O   0  0  0  0  0  0  0  0  0  0  0  0
   34.2890   39.9160   22.6630 N   0  0  0  0  0  0  0  0  0  0  0  0
   34.4610   33.8300   21.1300 O   0  0  0  0  0  0  0  0  0  0  0  0
   34.3310   35.7140   22.4440 N   0  0  0  0  0  0  0  0  0  0  0  0
   33.9550   37.7110   23.7140 N   0  0  0  0  0  0  0  0  0  0  0  0
   33.6520   39.7730   24.9150 N   0  0  0  0  0  0  0  0  0  0  0  0
   39.3520   36.8220   17.2930 H   0  0  0  0  0  0  0  0  0  0  0  0
   35.3730   37.8920   19.3200 H   0  0  0  0  0  0  0  0  0  0  0  0
   35.8620   36.5270   14.7080 H   0  0  0  0  0  0  0  0  0  0  0  0
   34.4960   35.6740   16.6000 H   0  0  0  0  0  0  0  0  0  0  0  0
   34.8690   39.9560   20.6590 H   0  0  0  0  0  0  0  0  0  0  0  0
   33.6690   40.8140   24.8890 H   0  0  0  0  0  0  0  0  0  0  0  0
   38.3660   37.2160   14.9000 F   0  0  0  0  0  0  0  0  0  0  0  0
   33.5350   37.8400   28.2410 C   0  0  0  0  0  0  0  0  0  0  0  0
   34.1210   38.2840   26.8940 C   0  0  0  0  0  0  0  0  0  0  0  0
   33.1250   39.2320   26.2010 C   0  0  0  0  0  0  0  0  0  0  0  0
   31.7530   38.5460   26.0460 C   0  0  0  0  0  0  0  0  0  0  0  0
   31.2650   38.0750   27.4230 C   0  0  0  0  0  0  0  0  0  0  0  0
   32.2340   37.2300   28.0840 O   0  0  0  0  0  0  0  0  0  0  0  0
   33.4470   38.7010   28.9430 H   0  0  0  0  0  0  0  0  0  0  0  0
   34.1310   37.0100   28.6860 H   0  0  0  0  0  0  0  0  0  0  0  0
   34.3110   37.3880   26.2540 H   0  0  0  0  0  0  0  0  0  0  0  0
   35.0930   38.8070   27.0640 H   0  0  0  0  0  0  0  0  0  0  0  0
   32.9960   40.1540   26.8480 H   0  0  0  0  0  0  0  0  0  0  0  0
   31.0140   39.2610   25.6140 H   0  0  0  0  0  0  0  0  0  0  0  0
   31.8400   37.6680   25.3630 H   0  0  0  0  0  0  0  0  0  0  0  0
   31.0360   38.9400   28.0860 H   0  0  0  0  0  0  0  0  0  0  0  0
   30.3900   37.3910   27.3280 H   0  0  0  0  0  0  0  0  0  0  0  0
   33.9760   34.8690   23.6320 C   0  0  0  0  0  0  0  0  0  0  0  0
   34.5650   33.9130   23.5560 H   0  0  0  0  0  0  0  0  0  0  0  0
   34.2780   35.4090   24.5710 H   0  0  0  0  0  0  0  0  0  0  0  0
   32.4730   34.5540   23.6730 C   0  0  0  0  0  0  0  0  0  0  0  0
   31.9160   35.4500   24.0470 H   0  0  0  0  0  0  0  0  0  0  0  0
   32.0920   34.3130   22.6520 H   0  0  0  0  0  0  0  0  0  0  0  0
   32.1650   33.3710   24.6040 C   0  0  0  0  0  0  0  0  0  0  0  0
   32.7160   33.4540   25.5680 H   0  0  0  0  0  0  0  0  0  0  0  0
   31.0650   33.3010   24.7810 H   0  0  0  0  0  0  0  0  0  0  0  0
   32.4810   32.1160   23.9740 O   0  0  0  0  0  0  0  0  0  0  0  0
   33.4630   31.9310   24.1060 H   0  0  0  0  0  0  0  0  0  0  0  0
  1  3  2  0  0  0  0
  1  7  1  0  0  0  0
  1 21  1  0  0  0  0
  2 12  1  0  0  0  0
  2 17  2  0  0  0  0
  2 18  1  0  0  0  0
  3 13  1  0  0  0  0
  3 14  1  0  0  0  0
  4 16  2  0  0  0  0
  4 19  1  0  0  0  0
  4 20  1  0  0  0  0
  5  6  1  0  0  0  0
  5 10  1  0  0  0  0
  5 11  2  0  0  0  0
  6 12  2  0  0  0  0
  6 22  1  0  0  0  0
  7  8  2  0  0  0  0
  7 27  1  0  0  0  0
  8  9  1  0  0  0  0
  8 23  1  0  0  0  0
  9 13  2  0  0  0  0
  9 24  1  0  0  0  0
 10 18  1  0  0  0  0
 10 19  2  0  0  0  0
 11 16  1  0  0  0  0
 11 25  1  0  0  0  0
 12 15  1  0  0  0  0
 13 15  1  0  0  0  0
 18 43  1  0  0  0  0
 20 26  1  0  0  0  0
 20 30  1  0  0  0  0
 28 29  1  0  0  0  0
 28 33  1  0  0  0  0
 28 34  1  0  0  0  0
 28 35  1  0  0  0  0
 29 30  1  0  0  0  0
 29 36  1  0  0  0  0
 29 37  1  0  0  0  0
 30 31  1  0  0  0  0
 30 38  1  0  0  0  0
 31 32  1  0  0  0  0
 31 39  1  0  0  0  0
 31 40  1  0  0  0  0
 32 33  1  0  0  0  0
 32 41  1  0  0  0  0
 32 42  1  0  0  0  0
 43 44  1  0  0  0  0
 43 45  1  0  0  0  0
 43 46  1  0  0  0  0
 46 47  1  0  0  0  0
 46 48  1  0  0  0  0
 46 49  1  0  0  0  0
 49 50  1  0  0  0  0
 49 51  1  0  0  0  0
 49 52  1  0  0  0  0
 52 53  1  0  0  0  0
M  END
$$$$
