18637-1
 OpenBabel02232411163D
Structure written by MMmdl.
 53 54  0  0  0  0  0  0  0  0999 V2000
   23.8000   12.6680   30.3550 C   0  0  0  0  0  0  0  0  0  0  0  0
   23.3620   11.2200   30.4600 C   0  0  0  0  0  0  0  0  0  0  0  0
   22.1180   11.3030   31.2660 O   0  0  0  0  0  0  0  0  0  0  0  0
   21.4890   10.1570   31.6010 C   0  0  0  0  0  0  0  0  0  0  0  0
   21.9680    8.9740   31.1490 N   0  0  0  0  0  0  0  0  0  0  0  0
   21.2390    7.8320   31.4540 C   0  0  0  0  0  0  0  0  0  0  0  0
   20.0890    7.8620   32.2380 C   0  0  0  0  0  0  0  0  0  0  0  0
   19.6050    9.1060   32.7210 C   0  0  0  0  0  0  0  0  0  0  0  0
   18.4670    9.1400   33.4870 N   0  0  0  0  0  0  0  0  0  0  0  0
   20.3060   10.3080   32.3860 C   0  0  0  0  0  0  0  0  0  0  0  0
   19.8800   11.6040   32.7420 C   0  0  0  0  0  0  0  0  0  0  0  0
   19.5760   12.6960   32.9890 N   0  0  0  0  0  0  0  0  0  0  0  0
   21.7950    6.6780   30.8630 N   0  0  0  0  0  0  0  0  0  0  0  0
   21.1900    5.4010   30.7700 C   0  0  0  0  0  0  0  0  0  0  0  0
   20.1150    5.1490   31.2730 O   0  0  0  0  0  0  0  0  0  0  0  0
   21.9850    4.4180   29.9200 C   0  0  0  0  0  0  0  0  0  0  0  0
   23.3060    4.0620   30.5310 C   0  0  0  0  0  0  0  0  0  0  0  0
   24.4480    4.8670   30.3210 C   0  0  0  0  0  0  0  0  0  0  0  0
   24.2040    5.9510   29.4950 O   0  0  0  0  0  0  0  0  0  0  0  0
   25.2220    6.9830   29.3820 C   0  0  0  0  0  0  0  0  0  0  0  0
   25.6920    4.5680   30.8910 C   0  0  0  0  0  0  0  0  0  0  0  0
   25.8250    3.4260   31.6860 C   0  0  0  0  0  0  0  0  0  0  0  0
   24.6740    2.6060   31.9010 C   0  0  0  0  0  0  0  0  0  0  0  0
   23.4450    2.9140   31.3240 C   0  0  0  0  0  0  0  0  0  0  0  0
   24.9070    1.5480   32.7660 O   0  0  0  0  0  0  0  0  0  0  0  0
   24.0240    0.4010   32.6670 C   0  0  0  0  0  0  0  0  0  0  0  0
   27.0490    3.0640   32.3190 N   0  0  0  0  0  0  0  0  0  0  0  0
   28.3470    3.3670   31.8360 C   0  0  0  0  0  0  0  0  0  0  0  0
   28.5040    3.9930   30.8020 O   0  0  0  0  0  0  0  0  0  0  0  0
   29.4520    2.8540   32.7070 C   0  0  0  0  0  0  0  0  0  0  0  0
   24.0330   13.0970   31.3550 H   0  0  0  0  0  0  0  0  0  0  0  0
   23.0100   13.2910   29.8730 H   0  0  0  0  0  0  0  0  0  0  0  0
   24.7190   12.7200   29.7190 H   0  0  0  0  0  0  0  0  0  0  0  0
   23.0950   10.7830   29.4720 H   0  0  0  0  0  0  0  0  0  0  0  0
   24.0940   10.5900   31.0140 H   0  0  0  0  0  0  0  0  0  0  0  0
   19.5390    6.9470   32.4690 H   0  0  0  0  0  0  0  0  0  0  0  0
   18.0620   10.0220   33.7990 H   0  0  0  0  0  0  0  0  0  0  0  0
   17.9680    8.2660   33.7440 H   0  0  0  0  0  0  0  0  0  0  0  0
   22.7160    6.8210   30.3800 H   0  0  0  0  0  0  0  0  0  0  0  0
   21.3710    3.4910   29.7800 H   0  0  0  0  0  0  0  0  0  0  0  0
   22.1560    4.8860   28.9130 H   0  0  0  0  0  0  0  0  0  0  0  0
   25.4970    7.3680   30.3870 H   0  0  0  0  0  0  0  0  0  0  0  0
   26.0950    6.5830   28.8260 H   0  0  0  0  0  0  0  0  0  0  0  0
   24.6800    7.7570   28.7900 H   0  0  0  0  0  0  0  0  0  0  0  0
   26.5550    5.2190   30.7160 H   0  0  0  0  0  0  0  0  0  0  0  0
   22.5850    2.2610   31.4910 H   0  0  0  0  0  0  0  0  0  0  0  0
   24.5490   -0.3380   33.3190 H   0  0  0  0  0  0  0  0  0  0  0  0
   23.0250    0.6600   33.0800 H   0  0  0  0  0  0  0  0  0  0  0  0
   23.9710    0.0450   31.6170 H   0  0  0  0  0  0  0  0  0  0  0  0
   26.9710    2.3910   33.1010 H   0  0  0  0  0  0  0  0  0  0  0  0
   29.4820    1.7340   32.7090 H   0  0  0  0  0  0  0  0  0  0  0  0
   30.4480    3.2170   32.3440 H   0  0  0  0  0  0  0  0  0  0  0  0
   29.3380    3.1920   33.7690 H   0  0  0  0  0  0  0  0  0  0  0  0
  1  2  1  0  0  0  0
  1 31  1  0  0  0  0
  1 32  1  0  0  0  0
  1 33  1  0  0  0  0
  2  3  1  0  0  0  0
  2 34  1  0  0  0  0
  2 35  1  0  0  0  0
  3  4  1  0  0  0  0
  4 10  2  0  0  0  0
  4  5  1  0  0  0  0
  5  6  2  0  0  0  0
  6  7  1  0  0  0  0
  6 13  1  0  0  0  0
  7  8  2  0  0  0  0
  7 36  1  0  0  0  0
  8  9  1  0  0  0  0
  8 10  1  0  0  0  0
  9 37  1  0  0  0  0
  9 38  1  0  0  0  0
 10 11  1  0  0  0  0
 11 12  3  0  0  0  0
 13 14  1  0  0  0  0
 13 39  1  0  0  0  0
 14 15  2  0  0  0  0
 14 16  1  0  0  0  0
 16 17  1  0  0  0  0
 16 40  1  0  0  0  0
 16 41  1  0  0  0  0
 17 24  2  0  0  0  0
 17 18  1  0  0  0  0
 18 19  1  0  0  0  0
 18 21  2  0  0  0  0
 19 20  1  0  0  0  0
 20 42  1  0  0  0  0
 20 43  1  0  0  0  0
 20 44  1  0  0  0  0
 21 22  1  0  0  0  0
 21 45  1  0  0  0  0
 22 23  2  0  0  0  0
 22 27  1  0  0  0  0
 23 24  1  0  0  0  0
 23 25  1  0  0  0  0
 24 46  1  0  0  0  0
 25 26  1  0  0  0  0
 26 47  1  0  0  0  0
 26 48  1  0  0  0  0
 26 49  1  0  0  0  0
 27 28  1  0  0  0  0
 27 50  1  0  0  0  0
 28 29  2  0  0  0  0
 28 30  1  0  0  0  0
 30 51  1  0  0  0  0
 30 52  1  0  0  0  0
 30 53  1  0  0  0  0
M  END
$$$$
