p38a_2u
 OpenBabel02232411163D
Structure written by MMmdl.
 64 68  0  0  0  0  0  0  0  0999 V2000
   38.2270   36.4680   17.2660 C   0  0  0  0  0  0  0  0  0  0  0  0
   34.5370   35.1540   21.4680 C   0  0  0  0  0  0  0  0  0  0  0  0
   37.4710   36.0500   18.3580 C   0  0  0  0  0  0  0  0  0  0  0  0
   34.0730   39.3280   23.8740 C   0  0  0  0  0  0  0  0  0  0  0  0
   34.6540   38.0340   21.5090 C   0  0  0  0  0  0  0  0  0  0  0  0
   35.0420   37.3330   20.3160 C   0  0  0  0  0  0  0  0  0  0  0  0
   37.5490   36.5800   16.0440 C   0  0  0  0  0  0  0  0  0  0  0  0
   36.1970   36.2690   15.8840 C   0  0  0  0  0  0  0  0  0  0  0  0
   35.4620   35.8420   16.9950 C   0  0  0  0  0  0  0  0  0  0  0  0
   34.2810   37.3050   22.6760 C   0  0  0  0  0  0  0  0  0  0  0  0
   34.6440   39.4520   21.6040 C   0  0  0  0  0  0  0  0  0  0  0  0
   35.0260   35.9810   20.3270 C   0  0  0  0  0  0  0  0  0  0  0  0
   36.1050   35.7220   18.2310 C   0  0  0  0  0  0  0  0  0  0  0  0
   38.0380   35.9550   19.5530 F   0  0  0  0  0  0  0  0  0  0  0  0
   35.4160   35.1260   19.2970 O   0  0  0  0  0  0  0  0  0  0  0  0
   34.3680   40.1110   22.7400 N   0  0  0  0  0  0  0  0  0  0  0  0
   34.4350   33.9460   21.4410 O   0  0  0  0  0  0  0  0  0  0  0  0
   34.1730   35.8970   22.6450 N   0  0  0  0  0  0  0  0  0  0  0  0
   34.0200   37.9470   23.8590 N   0  0  0  0  0  0  0  0  0  0  0  0
   33.7670   39.9830   25.0440 N   0  0  0  0  0  0  0  0  0  0  0  0
   39.2840   36.7340   17.3630 H   0  0  0  0  0  0  0  0  0  0  0  0
   35.3500   37.9190   19.4470 H   0  0  0  0  0  0  0  0  0  0  0  0
   35.7030   36.3690   14.9140 H   0  0  0  0  0  0  0  0  0  0  0  0
   34.3940   35.6220   16.8920 H   0  0  0  0  0  0  0  0  0  0  0  0
   34.8670   40.0590   20.7110 H   0  0  0  0  0  0  0  0  0  0  0  0
   33.8960   41.0100   25.1100 H   0  0  0  0  0  0  0  0  0  0  0  0
   38.2240   37.0420   14.9930 F   0  0  0  0  0  0  0  0  0  0  0  0
   32.5480   39.4340   28.6260 C   0  0  0  0  0  0  0  0  0  0  0  0
   32.6430   40.0760   27.2360 C   0  0  0  0  0  0  0  0  0  0  0  0
   33.6040   39.2620   26.3450 C   0  0  0  0  0  0  0  0  0  0  0  0
   34.9700   39.0900   27.0450 C   0  0  0  0  0  0  0  0  0  0  0  0
   34.7630   38.4910   28.4420 C   0  0  0  0  0  0  0  0  0  0  0  0
   33.8490   39.2830   29.2350 O   0  0  0  0  0  0  0  0  0  0  0  0
   32.0520   38.4370   28.5700 H   0  0  0  0  0  0  0  0  0  0  0  0
   32.0280   40.1110   29.3430 H   0  0  0  0  0  0  0  0  0  0  0  0
   33.0130   41.1230   27.3400 H   0  0  0  0  0  0  0  0  0  0  0  0
   31.6330   40.1060   26.7630 H   0  0  0  0  0  0  0  0  0  0  0  0
   33.1510   38.2500   26.1420 H   0  0  0  0  0  0  0  0  0  0  0  0
   35.6180   38.4080   26.4450 H   0  0  0  0  0  0  0  0  0  0  0  0
   35.4770   40.0800   27.1270 H   0  0  0  0  0  0  0  0  0  0  0  0
   34.3710   37.4500   28.3720 H   0  0  0  0  0  0  0  0  0  0  0  0
   35.7000   38.5390   29.0430 H   0  0  0  0  0  0  0  0  0  0  0  0
   34.1050   33.7730   25.8730 C   0  0  0  0  0  0  0  0  0  0  0  0
   34.7060   34.3400   24.5680 C   0  0  0  0  0  0  0  0  0  0  0  0
   33.6290   35.1900   23.8680 C   0  0  0  0  0  0  0  0  0  0  0  0
   32.4210   34.3030   23.5230 C   0  0  0  0  0  0  0  0  0  0  0  0
   31.8390   33.7070   24.8230 C   0  0  0  0  0  0  0  0  0  0  0  0
   33.8780   34.6330   26.5630 H   0  0  0  0  0  0  0  0  0  0  0  0
   34.8720   33.1060   26.3430 H   0  0  0  0  0  0  0  0  0  0  0  0
   35.0330   33.5030   23.9070 H   0  0  0  0  0  0  0  0  0  0  0  0
   35.5870   34.9730   24.8280 H   0  0  0  0  0  0  0  0  0  0  0  0
   33.2740   35.9840   24.5920 H   0  0  0  0  0  0  0  0  0  0  0  0
   31.6200   34.9010   23.0270 H   0  0  0  0  0  0  0  0  0  0  0  0
   32.7220   33.4690   22.8420 H   0  0  0  0  0  0  0  0  0  0  0  0
   31.3810   34.5380   25.4280 H   0  0  0  0  0  0  0  0  0  0  0  0
   31.0300   32.9910   24.5160 H   0  0  0  0  0  0  0  0  0  0  0  0
   32.8730   32.9590   25.6070 N   0  0  0  0  0  0  0  0  0  0  0  0
   32.2870   32.0350   26.9570 S   0  0  0  0  0  0  0  0  0  0  0  0
   31.9780   32.9240   28.0940 O   0  0  0  0  0  0  0  0  0  0  0  0
   33.3620   31.0770   27.2760 O   0  0  0  0  0  0  0  0  0  0  0  0
   30.8590   31.2180   26.4230 C   0  0  0  0  0  0  0  0  0  0  0  0
   30.9930   30.7070   25.4310 H   0  0  0  0  0  0  0  0  0  0  0  0
   30.5430   30.4160   27.1450 H   0  0  0  0  0  0  0  0  0  0  0  0
   29.9740   31.9010   26.3200 H   0  0  0  0  0  0  0  0  0  0  0  0
  1  3  2  0  0  0  0
  1  7  1  0  0  0  0
  1 21  1  0  0  0  0
  2 12  1  0  0  0  0
  2 17  2  0  0  0  0
  2 18  1  0  0  0  0
  3 13  1  0  0  0  0
  3 14  1  0  0  0  0
  4 16  2  0  0  0  0
  4 19  1  0  0  0  0
  4 20  1  0  0  0  0
  5  6  1  0  0  0  0
  5 10  1  0  0  0  0
  5 11  2  0  0  0  0
  6 12  2  0  0  0  0
  6 22  1  0  0  0  0
  7  8  2  0  0  0  0
  7 27  1  0  0  0  0
  8  9  1  0  0  0  0
  8 23  1  0  0  0  0
  9 13  2  0  0  0  0
  9 24  1  0  0  0  0
 10 18  1  0  0  0  0
 10 19  2  0  0  0  0
 11 16  1  0  0  0  0
 11 25  1  0  0  0  0
 12 15  1  0  0  0  0
 13 15  1  0  0  0  0
 18 45  1  0  0  0  0
 20 26  1  0  0  0  0
 20 30  1  0  0  0  0
 28 29  1  0  0  0  0
 28 33  1  0  0  0  0
 28 34  1  0  0  0  0
 28 35  1  0  0  0  0
 29 30  1  0  0  0  0
 29 36  1  0  0  0  0
 29 37  1  0  0  0  0
 30 31  1  0  0  0  0
 30 38  1  0  0  0  0
 31 32  1  0  0  0  0
 31 39  1  0  0  0  0
 31 40  1  0  0  0  0
 32 33  1  0  0  0  0
 32 41  1  0  0  0  0
 32 42  1  0  0  0  0
 43 44  1  0  0  0  0
 43 48  1  0  0  0  0
 43 49  1  0  0  0  0
 43 57  1  0  0  0  0
 44 45  1  0  0  0  0
 44 50  1  0  0  0  0
 44 51  1  0  0  0  0
 45 46  1  0  0  0  0
 45 52  1  0  0  0  0
 46 47  1  0  0  0  0
 46 53  1  0  0  0  0
 46 54  1  0  0  0  0
 47 55  1  0  0  0  0
 47 56  1  0  0  0  0
 47 57  1  0  0  0  0
 57 58  1  0  0  0  0
 58 59  2  0  0  0  0
 58 60  2  0  0  0  0
 58 61  1  0  0  0  0
 61 62  1  0  0  0  0
 61 63  1  0  0  0  0
 61 64  1  0  0  0  0
M  END
$$$$
