18658-1
 OpenBabel02232411163D
Structure written by MMmdl.
 47 48  0  0  0  0  0  0  0  0999 V2000
   24.1460   12.5600   28.4650 O   0  0  0  0  0  0  0  0  0  0  0  0
   23.5440   12.5460   29.7660 C   0  0  0  0  0  0  0  0  0  0  0  0
   23.3220   11.0970   30.2250 C   0  0  0  0  0  0  0  0  0  0  0  0
   22.1620   11.2220   31.1320 O   0  0  0  0  0  0  0  0  0  0  0  0
   21.5340   10.0860   31.5250 C   0  0  0  0  0  0  0  0  0  0  0  0
   22.0010    8.8950   31.0880 N   0  0  0  0  0  0  0  0  0  0  0  0
   21.2780    7.7600   31.4340 C   0  0  0  0  0  0  0  0  0  0  0  0
   20.1380    7.8120   32.2300 C   0  0  0  0  0  0  0  0  0  0  0  0
   19.6680    9.0680   32.6990 C   0  0  0  0  0  0  0  0  0  0  0  0
   18.5340    9.1210   33.4680 N   0  0  0  0  0  0  0  0  0  0  0  0
   20.3770   10.2600   32.3390 C   0  0  0  0  0  0  0  0  0  0  0  0
   19.9730   11.5610   32.7040 C   0  0  0  0  0  0  0  0  0  0  0  0
   19.6810   12.6530   32.9680 N   0  0  0  0  0  0  0  0  0  0  0  0
   21.8290    6.5930   30.8650 N   0  0  0  0  0  0  0  0  0  0  0  0
   21.2180    5.3170   30.8000 C   0  0  0  0  0  0  0  0  0  0  0  0
   20.1500    5.0760   31.3200 O   0  0  0  0  0  0  0  0  0  0  0  0
   21.9980    4.3200   29.9560 C   0  0  0  0  0  0  0  0  0  0  0  0
   23.3250    3.9600   30.5560 C   0  0  0  0  0  0  0  0  0  0  0  0
   24.4630    4.7690   30.3240 C   0  0  0  0  0  0  0  0  0  0  0  0
   24.2050    5.8490   29.4860 O   0  0  0  0  0  0  0  0  0  0  0  0
   25.2430    6.8560   29.3470 C   0  0  0  0  0  0  0  0  0  0  0  0
   25.7100    4.4650   30.8840 C   0  0  0  0  0  0  0  0  0  0  0  0
   25.8430    3.3340   31.6830 C   0  0  0  0  0  0  0  0  0  0  0  0
   24.7210    2.5120   31.9010 C   0  0  0  0  0  0  0  0  0  0  0  0
   23.4700    2.8120   31.3420 C   0  0  0  0  0  0  0  0  0  0  0  0
   24.9970    1.4360   32.7200 O   0  0  0  0  0  0  0  0  0  0  0  0
   23.9890    0.4000   32.8390 C   0  0  0  0  0  0  0  0  0  0  0  0
   23.4960   12.2360   27.7690 H   0  0  0  0  0  0  0  0  0  0  0  0
   24.3090   13.0650   30.3930 H   0  0  0  0  0  0  0  0  0  0  0  0
   22.5810   13.1080   29.7480 H   0  0  0  0  0  0  0  0  0  0  0  0
   23.0590   10.4290   29.3730 H   0  0  0  0  0  0  0  0  0  0  0  0
   24.1660   10.6860   30.8200 H   0  0  0  0  0  0  0  0  0  0  0  0
   19.5860    6.9050   32.4850 H   0  0  0  0  0  0  0  0  0  0  0  0
   18.0280    8.2560   33.7370 H   0  0  0  0  0  0  0  0  0  0  0  0
   18.1430   10.0120   33.7750 H   0  0  0  0  0  0  0  0  0  0  0  0
   22.7500    6.7240   30.3740 H   0  0  0  0  0  0  0  0  0  0  0  0
   21.3760    3.3970   29.8280 H   0  0  0  0  0  0  0  0  0  0  0  0
   22.1650    4.7790   28.9420 H   0  0  0  0  0  0  0  0  0  0  0  0
   26.1080    6.4240   28.8010 H   0  0  0  0  0  0  0  0  0  0  0  0
   24.7200    7.6280   28.7380 H   0  0  0  0  0  0  0  0  0  0  0  0
   25.5310    7.2560   30.3430 H   0  0  0  0  0  0  0  0  0  0  0  0
   26.5860    5.0930   30.6990 H   0  0  0  0  0  0  0  0  0  0  0  0
   26.8110    3.0850   32.1280 H   0  0  0  0  0  0  0  0  0  0  0  0
   22.6130    2.1600   31.5140 H   0  0  0  0  0  0  0  0  0  0  0  0
   24.5160   -0.3530   33.4730 H   0  0  0  0  0  0  0  0  0  0  0  0
   23.0890    0.7960   33.3560 H   0  0  0  0  0  0  0  0  0  0  0  0
   23.7520   -0.0190   31.8370 H   0  0  0  0  0  0  0  0  0  0  0  0
  1  2  1  0  0  0  0
  1 28  1  0  0  0  0
  2  3  1  0  0  0  0
  2 29  1  0  0  0  0
  2 30  1  0  0  0  0
  3  4  1  0  0  0  0
  3 31  1  0  0  0  0
  3 32  1  0  0  0  0
  4  5  1  0  0  0  0
  5 11  2  0  0  0  0
  5  6  1  0  0  0  0
  6  7  2  0  0  0  0
  7  8  1  0  0  0  0
  7 14  1  0  0  0  0
  8  9  2  0  0  0  0
  8 33  1  0  0  0  0
  9 10  1  0  0  0  0
  9 11  1  0  0  0  0
 10 34  1  0  0  0  0
 10 35  1  0  0  0  0
 11 12  1  0  0  0  0
 12 13  3  0  0  0  0
 14 15  1  0  0  0  0
 14 36  1  0  0  0  0
 15 16  2  0  0  0  0
 15 17  1  0  0  0  0
 17 18  1  0  0  0  0
 17 37  1  0  0  0  0
 17 38  1  0  0  0  0
 18 25  2  0  0  0  0
 18 19  1  0  0  0  0
 19 20  1  0  0  0  0
 19 22  2  0  0  0  0
 20 21  1  0  0  0  0
 21 39  1  0  0  0  0
 21 40  1  0  0  0  0
 21 41  1  0  0  0  0
 22 23  1  0  0  0  0
 22 42  1  0  0  0  0
 23 24  2  0  0  0  0
 23 43  1  0  0  0  0
 24 25  1  0  0  0  0
 24 26  1  0  0  0  0
 25 44  1  0  0  0  0
 26 27  1  0  0  0  0
 27 45  1  0  0  0  0
 27 46  1  0  0  0  0
 27 47  1  0  0  0  0
M  END
$$$$
