18636-1
 OpenBabel02232411163D
Structure written by MMmdl.
 38 39  0  0  0  0  0  0  0  0999 V2000
   23.7900   12.6880   30.3540 C   0  0  0  0  0  0  0  0  0  0  0  0
   23.3520   11.2370   30.4040 C   0  0  0  0  0  0  0  0  0  0  0  0
   22.1270   11.2870   31.2460 O   0  0  0  0  0  0  0  0  0  0  0  0
   21.5280   10.1290   31.5850 C   0  0  0  0  0  0  0  0  0  0  0  0
   22.0220    8.9570   31.1170 N   0  0  0  0  0  0  0  0  0  0  0  0
   21.3290    7.7980   31.4370 C   0  0  0  0  0  0  0  0  0  0  0  0
   20.1890    7.7960   32.2330 C   0  0  0  0  0  0  0  0  0  0  0  0
   19.6810    9.0300   32.7260 C   0  0  0  0  0  0  0  0  0  0  0  0
   18.5380    9.0430   33.4850 N   0  0  0  0  0  0  0  0  0  0  0  0
   20.3600   10.2460   32.3980 C   0  0  0  0  0  0  0  0  0  0  0  0
   19.9330   11.5320   32.7900 C   0  0  0  0  0  0  0  0  0  0  0  0
   19.6340   12.6180   33.0690 N   0  0  0  0  0  0  0  0  0  0  0  0
   21.9200    6.6590   30.8360 N   0  0  0  0  0  0  0  0  0  0  0  0
   21.4000    5.3440   30.8030 C   0  0  0  0  0  0  0  0  0  0  0  0
   20.3980    5.0120   31.3980 O   0  0  0  0  0  0  0  0  0  0  0  0
   22.2030    4.4030   29.9080 C   0  0  0  0  0  0  0  0  0  0  0  0
   23.4420    3.8980   30.5870 C   0  0  0  0  0  0  0  0  0  0  0  0
   24.7180    4.4420   30.3610 C   0  0  0  0  0  0  0  0  0  0  0  0
   25.0220    5.7640   29.0120 Br  0  0  0  0  0  0  0  0  0  0  0  0
   25.8390    4.0010   31.0710 C   0  0  0  0  0  0  0  0  0  0  0  0
   25.7110    2.9680   32.0030 C   0  0  0  0  0  0  0  0  0  0  0  0
   24.4570    2.3800   32.1840 C   0  0  0  0  0  0  0  0  0  0  0  0
   24.2830    0.9200   33.4010 Br  0  0  0  0  0  0  0  0  0  0  0  0
   23.3330    2.8270   31.4910 C   0  0  0  0  0  0  0  0  0  0  0  0
   24.6620   12.7740   29.6570 H   0  0  0  0  0  0  0  0  0  0  0  0
   22.9720   13.3400   29.9660 H   0  0  0  0  0  0  0  0  0  0  0  0
   24.0990   13.0570   31.3570 H   0  0  0  0  0  0  0  0  0  0  0  0
   23.0520   10.8460   29.4060 H   0  0  0  0  0  0  0  0  0  0  0  0
   24.0980   10.5820   30.9070 H   0  0  0  0  0  0  0  0  0  0  0  0
   19.6650    6.8680   32.4680 H   0  0  0  0  0  0  0  0  0  0  0  0
   18.0560    8.1660   33.7550 H   0  0  0  0  0  0  0  0  0  0  0  0
   18.1280    9.9210   33.8070 H   0  0  0  0  0  0  0  0  0  0  0  0
   22.7920    6.8590   30.2970 H   0  0  0  0  0  0  0  0  0  0  0  0
   21.5410    3.5350   29.6390 H   0  0  0  0  0  0  0  0  0  0  0  0
   22.4550    4.9330   28.9490 H   0  0  0  0  0  0  0  0  0  0  0  0
   26.8270    4.4510   30.8970 H   0  0  0  0  0  0  0  0  0  0  0  0
   26.5920    2.6250   32.5620 H   0  0  0  0  0  0  0  0  0  0  0  0
   22.3660    2.3320   31.6410 H   0  0  0  0  0  0  0  0  0  0  0  0
  1  2  1  0  0  0  0
  1 25  1  0  0  0  0
  1 26  1  0  0  0  0
  1 27  1  0  0  0  0
  2  3  1  0  0  0  0
  2 28  1  0  0  0  0
  2 29  1  0  0  0  0
  3  4  1  0  0  0  0
  4 10  2  0  0  0  0
  4  5  1  0  0  0  0
  5  6  2  0  0  0  0
  6  7  1  0  0  0  0
  6 13  1  0  0  0  0
  7  8  2  0  0  0  0
  7 30  1  0  0  0  0
  8  9  1  0  0  0  0
  8 10  1  0  0  0  0
  9 31  1  0  0  0  0
  9 32  1  0  0  0  0
 10 11  1  0  0  0  0
 11 12  3  0  0  0  0
 13 14  1  0  0  0  0
 13 33  1  0  0  0  0
 14 15  2  0  0  0  0
 14 16  1  0  0  0  0
 16 17  1  0  0  0  0
 16 34  1  0  0  0  0
 16 35  1  0  0  0  0
 17 24  2  0  0  0  0
 17 18  1  0  0  0  0
 18 19  1  0  0  0  0
 18 20  2  0  0  0  0
 20 21  1  0  0  0  0
 20 36  1  0  0  0  0
 21 22  2  0  0  0  0
 21 37  1  0  0  0  0
 22 23  1  0  0  0  0
 22 24  1  0  0  0  0
 24 38  1  0  0  0  0
M  END
$$$$
