CAT-4m
 OpenBabel02232411143D
Structure written by MMmdl.
 48 51  0  0  1  0  0  0  0  0999 V2000
   15.2100    4.0940    0.7230 C   0  0  0  0  0  0  0  0  0  0  0  0
   15.1160    3.5530   -0.6640 C   0  0  0  0  0  0  0  0  0  0  0  0
   14.6690    4.3500   -1.7430 C   0  0  0  0  0  0  0  0  0  0  0  0
   14.5610    3.8760   -3.0080 N   0  0  0  0  0  0  0  0  0  0  0  0
   14.8610    2.5750   -3.2480 C   0  0  0  0  0  0  0  0  0  0  0  0
   15.2790    1.6940   -2.2260 C   0  0  0  0  0  0  0  0  0  0  0  0
   15.4960    0.2580   -2.4920 C   0  0  0  0  0  0  0  0  0  0  0  0
   16.0880   -0.1930   -3.6870 C   0  0  0  0  0  0  0  0  0  0  0  0
   16.2400   -1.5600   -3.9190 C   0  0  0  0  0  0  0  0  0  0  0  0
   15.8230   -2.5100   -2.9770 C   0  0  0  0  0  0  0  0  0  0  0  0
   15.2470   -2.0720   -1.7840 C   0  0  0  0  0  0  0  0  0  0  0  0
   14.7310   -3.0300   -0.7320 C   0  0  1  0  0  0  0  0  0  0  0  0
   15.1010   -4.5010   -0.7440 C   0  0  0  0  0  0  0  0  0  0  0  0
   14.1400   -5.4920   -0.4880 C   0  0  0  0  0  0  0  0  0  0  0  0
   14.5400   -6.8050   -0.2300 C   0  0  0  0  0  0  0  0  0  0  0  0
   15.8950   -7.1490   -0.2590 C   0  0  0  0  0  0  0  0  0  0  0  0
   16.8530   -6.1680   -0.5380 C   0  0  0  0  0  0  0  0  0  0  0  0
   16.4600   -4.8480   -0.7740 C   0  0  0  0  0  0  0  0  0  0  0  0
   15.1770   -2.5400    0.6360 N   0  3  0  0  0  0  0  0  0  0  0  0
   14.0950   -2.5380    1.5170 C   0  0  0  0  0  0  0  0  0  0  0  0
   14.2540   -2.5320    2.8700 N   0  0  0  0  0  0  0  0  0  0  0  0
   12.9040   -2.6360    0.8000 N   0  0  0  0  0  0  0  0  0  0  0  0
   11.5660   -2.4850    1.4070 C   0  0  0  0  0  0  0  0  0  0  0  0
   13.1790   -2.8410   -0.6390 C   0  0  0  0  0  0  0  0  0  0  0  0
   12.3210   -2.8260   -1.4610 O   0  0  0  0  0  0  0  0  0  0  0  0
   15.0770   -0.6940   -1.5520 C   0  0  0  0  0  0  0  0  0  0  0  0
   15.4320    2.2150   -0.9310 C   0  0  0  0  0  0  0  0  0  0  0  0
   16.1760    3.7980    1.2000 H   0  0  0  0  0  0  0  0  0  0  0  0
   15.1260    5.2070    0.7470 H   0  0  0  0  0  0  0  0  0  0  0  0
   14.3820    3.6670    1.3410 H   0  0  0  0  0  0  0  0  0  0  0  0
   14.3760    5.4010   -1.5840 H   0  0  0  0  0  0  0  0  0  0  0  0
   14.7490    2.2250   -4.2880 H   0  0  0  0  0  0  0  0  0  0  0  0
   16.4400    0.5200   -4.4400 H   0  0  0  0  0  0  0  0  0  0  0  0
   16.6970   -1.8860   -4.8530 H   0  0  0  0  0  0  0  0  0  0  0  0
   15.9490   -3.5760   -3.1720 H   0  0  0  0  0  0  0  0  0  0  0  0
   13.0740   -5.2620   -0.4620 H   0  0  0  0  0  0  0  0  0  0  0  0
   13.7820   -7.5630   -0.0020 H   0  0  0  0  0  0  0  0  0  0  0  0
   16.1930   -8.1820   -0.0500 H   0  0  0  0  0  0  0  0  0  0  0  0
   17.9200   -6.4060   -0.5070 H   0  0  0  0  0  0  0  0  0  0  0  0
   17.2110   -4.0700   -0.9290 H   0  0  0  0  0  0  0  0  0  0  0  0
   16.1280   -2.8110    1.0030 H   0  0  0  0  0  0  0  0  0  0  0  0
   13.5380   -2.0980    3.5020 H   0  0  0  0  0  0  0  0  0  0  0  0
   10.8430   -3.1610    0.8750 H   0  0  0  0  0  0  0  0  0  0  0  0
   11.5910   -2.7770    2.4910 H   0  0  0  0  0  0  0  0  0  0  0  0
   11.2330   -1.4180    1.3140 H   0  0  0  0  0  0  0  0  0  0  0  0
   14.6180   -0.3680   -0.6200 H   0  0  0  0  0  0  0  0  0  0  0  0
   15.7850    1.5680   -0.1250 H   0  0  0  0  0  0  0  0  0  0  0  0
   15.2350   -2.4130    3.2530 H   0  0  0  0  0  0  0  0  0  0  0  0
  1  2  1  0  0  0  0
  1 28  1  0  0  0  0
  1 29  1  0  0  0  0
  1 30  1  0  0  0  0
  2  3  2  0  0  0  0
  2 27  1  0  0  0  0
  3  4  1  0  0  0  0
  3 31  1  0  0  0  0
  4  5  2  0  0  0  0
  5  6  1  0  0  0  0
  5 32  1  0  0  0  0
  6  7  1  0  0  0  0
  6 27  2  0  0  0  0
  7  8  2  0  0  0  0
  7 26  1  0  0  0  0
  8  9  1  0  0  0  0
  8 33  1  0  0  0  0
  9 10  2  0  0  0  0
  9 34  1  0  0  0  0
 10 11  1  0  0  0  0
 10 35  1  0  0  0  0
 11 26  2  0  0  0  0
 12 11  1  6  0  0  0
 12 13  1  0  0  0  0
 12 19  1  0  0  0  0
 12 24  1  0  0  0  0
 13 14  2  0  0  0  0
 13 18  1  0  0  0  0
 14 15  1  0  0  0  0
 14 36  1  0  0  0  0
 15 16  2  0  0  0  0
 15 37  1  0  0  0  0
 16 17  1  0  0  0  0
 16 38  1  0  0  0  0
 17 18  2  0  0  0  0
 17 39  1  0  0  0  0
 18 40  1  0  0  0  0
 19 20  2  0  0  0  0
 19 41  1  0  0  0  0
 20 21  1  0  0  0  0
 20 22  1  0  0  0  0
 21 42  1  0  0  0  0
 21 48  1  0  0  0  0
 22 23  1  0  0  0  0
 22 24  1  0  0  0  0
 23 43  1  0  0  0  0
 23 44  1  0  0  0  0
 23 45  1  0  0  0  0
 24 25  2  0  0  0  0
 26 46  1  0  0  0  0
 27 47  1  0  0  0  0
M  CHG  1  19   1
M  END
$$$$
