50
 OpenBabel02232411163D
Structure written by MMmdl.
 44 46  0  0  0  0  0  0  0  0999 V2000
    3.9800  -50.1410    5.7520 O   0  0  0  0  0  0  0  0  0  0  0  0
    3.2530  -49.4120    6.4520 C   0  0  0  0  0  0  0  0  0  0  0  0
    3.6090  -48.4660    7.1650 O   0  5  0  0  0  0  0  0  0  0  0  0
    1.7530  -49.7660    6.4250 C   0  0  0  0  0  0  0  0  0  0  0  0
   -0.0390  -51.1810    6.5740 C   0  0  0  0  0  0  0  0  0  0  0  0
   -0.9090  -52.2680    6.7860 C   0  0  0  0  0  0  0  0  0  0  0  0
   -2.2690  -52.0470    6.6420 C   0  0  0  0  0  0  0  0  0  0  0  0
   -2.7750  -50.7780    6.2700 C   0  0  0  0  0  0  0  0  0  0  0  0
   -1.9050  -49.7210    6.0630 C   0  0  0  0  0  0  0  0  0  0  0  0
   -0.5200  -49.8640    6.2260 C   0  0  0  0  0  0  0  0  0  0  0  0
    0.6300  -48.9880    6.1640 C   0  0  0  0  0  0  0  0  0  0  0  0
    0.5540  -47.5130    5.9700 C   0  0  0  0  0  0  0  0  0  0  0  0
   -0.0020  -46.8650    7.2560 C   0  0  0  0  0  0  0  0  0  0  0  0
   -0.6000  -45.4790    7.0610 C   0  0  0  0  0  0  0  0  0  0  0  0
   -1.7840  -45.5340    6.1990 O   0  0  0  0  0  0  0  0  0  0  0  0
   -3.0250  -45.4050    6.7510 C   0  0  0  0  0  0  0  0  0  0  0  0
   -3.3850  -45.8530    8.0300 C   0  0  0  0  0  0  0  0  0  0  0  0
   -4.7080  -45.6870    8.4590 C   0  0  0  0  0  0  0  0  0  0  0  0
   -5.1420  -46.1910    9.7950 C   0  0  0  0  0  0  0  0  0  0  0  0
   -5.6220  -45.0510    7.6030 C   0  0  0  0  0  0  0  0  0  0  0  0
   -7.2550  -44.8650    8.1340 Cl  0  0  0  0  0  0  0  0  0  0  0  0
   -5.2720  -44.5980    6.3170 C   0  0  0  0  0  0  0  0  0  0  0  0
   -6.2850  -43.9920    5.4020 C   0  0  0  0  0  0  0  0  0  0  0  0
   -3.9570  -44.7890    5.8900 C   0  0  0  0  0  0  0  0  0  0  0  0
   -0.5300  -53.2520    7.0650 H   0  0  0  0  0  0  0  0  0  0  0  0
   -2.9780  -52.8590    6.8200 H   0  0  0  0  0  0  0  0  0  0  0  0
   -3.8530  -50.6510    6.1540 H   0  0  0  0  0  0  0  0  0  0  0  0
   -2.5500  -48.1910    5.5830 Cl  0  0  0  0  0  0  0  0  0  0  0  0
   -0.1230  -47.2680    5.1130 H   0  0  0  0  0  0  0  0  0  0  0  0
    1.5600  -47.0840    5.7450 H   0  0  0  0  0  0  0  0  0  0  0  0
    0.8240  -46.7720    7.9990 H   0  0  0  0  0  0  0  0  0  0  0  0
   -0.7970  -47.5250    7.6850 H   0  0  0  0  0  0  0  0  0  0  0  0
    0.0470  -44.8130    6.4480 H   0  0  0  0  0  0  0  0  0  0  0  0
   -0.8740  -45.0050    8.0290 H   0  0  0  0  0  0  0  0  0  0  0  0
   -2.6700  -46.3610    8.6730 H   0  0  0  0  0  0  0  0  0  0  0  0
   -5.6860  -45.3980   10.3630 H   0  0  0  0  0  0  0  0  0  0  0  0
   -5.8410  -47.0560    9.6630 H   0  0  0  0  0  0  0  0  0  0  0  0
   -4.2760  -46.5390   10.4030 H   0  0  0  0  0  0  0  0  0  0  0  0
   -5.7930  -43.4720    4.5480 H   0  0  0  0  0  0  0  0  0  0  0  0
   -6.9420  -44.8020    4.9940 H   0  0  0  0  0  0  0  0  0  0  0  0
   -6.9340  -43.2600    5.9340 H   0  0  0  0  0  0  0  0  0  0  0  0
   -3.6490  -44.4740    4.8960 H   0  0  0  0  0  0  0  0  0  0  0  0
    1.3530  -51.0950    6.6730 N   0  0  0  0  0  0  0  0  0  0  0  0
    1.9460  -51.8890    6.8930 H   0  0  0  0  0  0  0  0  0  0  0  0
  1  2  2  0  0  0  0
  2  3  1  0  0  0  0
  2  4  1  0  0  0  0
  4 11  2  0  0  0  0
  4 43  1  0  0  0  0
  5  6  2  0  0  0  0
  5 10  1  0  0  0  0
  5 43  1  0  0  0  0
  6  7  1  0  0  0  0
  6 25  1  0  0  0  0
  7  8  2  0  0  0  0
  7 26  1  0  0  0  0
  8  9  1  0  0  0  0
  8 27  1  0  0  0  0
  9 10  2  0  0  0  0
  9 28  1  0  0  0  0
 10 11  1  0  0  0  0
 11 12  1  0  0  0  0
 12 29  1  0  0  0  0
 12 30  1  0  0  0  0
 12 13  1  0  0  0  0
 13 14  1  0  0  0  0
 13 31  1  0  0  0  0
 13 32  1  0  0  0  0
 14 15  1  0  0  0  0
 14 33  1  0  0  0  0
 14 34  1  0  0  0  0
 15 16  1  0  0  0  0
 16 17  2  0  0  0  0
 16 24  1  0  0  0  0
 17 18  1  0  0  0  0
 17 35  1  0  0  0  0
 18 19  1  0  0  0  0
 18 20  2  0  0  0  0
 19 36  1  0  0  0  0
 19 37  1  0  0  0  0
 19 38  1  0  0  0  0
 20 21  1  0  0  0  0
 20 22  1  0  0  0  0
 22 23  1  0  0  0  0
 22 24  2  0  0  0  0
 23 39  1  0  0  0  0
 23 40  1  0  0  0  0
 23 41  1  0  0  0  0
 24 42  1  0  0  0  0
 43 44  1  0  0  0  0
M  CHG  1   3  -1
M  END
$$$$
