CAT-13b
 OpenBabel02232411143D
Structure written by MMmdl.
 42 44  0  0  1  0  0  0  0  0999 V2000
   14.5800   -5.1380   -0.1780 C   0  0  0  0  0  0  0  0  0  0  0  0
   15.2990   -4.1900   -1.1390 C   0  0  0  0  0  0  0  0  0  0  0  0
   14.9660   -2.7050   -0.8980 C   0  0  2  0  0  0  0  0  0  0  0  0
   15.5330   -1.6980   -1.8800 C   0  0  0  0  0  0  0  0  0  0  0  0
   16.2920   -2.0870   -2.9890 C   0  0  0  0  0  0  0  0  0  0  0  0
   16.7250   -1.1190   -3.9030 C   0  0  0  0  0  0  0  0  0  0  0  0
   16.4200    0.2300   -3.7150 C   0  0  0  0  0  0  0  0  0  0  0  0
   15.6950    0.6370   -2.5810 C   0  0  0  0  0  0  0  0  0  0  0  0
   15.4050    2.0670   -2.3290 C   0  0  0  0  0  0  0  0  0  0  0  0
   15.5790    2.5950   -1.0390 C   0  0  0  0  0  0  0  0  0  0  0  0
   15.2430    3.9230   -0.7630 C   0  0  0  0  0  0  0  0  0  0  0  0
   14.7480    4.7490   -1.7760 C   0  0  0  0  0  0  0  0  0  0  0  0
   14.6310    4.2260   -3.0670 C   0  0  0  0  0  0  0  0  0  0  0  0
   14.0800    5.2550   -4.3290 Cl  0  0  0  0  0  0  0  0  0  0  0  0
   14.9400    2.8970   -3.3620 C   0  0  0  0  0  0  0  0  0  0  0  0
   15.2460   -0.3370   -1.6770 C   0  0  0  0  0  0  0  0  0  0  0  0
   15.3730   -2.3140    0.5060 N   0  3  0  0  0  0  0  0  0  0  0  0
   14.2470   -2.3270    1.3430 C   0  0  0  0  0  0  0  0  0  0  0  0
   14.3360   -2.3880    2.7000 N   0  0  0  0  0  0  0  0  0  0  0  0
   13.0850   -2.3400    0.5780 N   0  0  0  0  0  0  0  0  0  0  0  0
   11.7280   -2.2190    1.1470 C   0  0  0  0  0  0  0  0  0  0  0  0
   13.4130   -2.5390   -0.8520 C   0  0  0  0  0  0  0  0  0  0  0  0
   12.5760   -2.5410   -1.6950 O   0  0  0  0  0  0  0  0  0  0  0  0
   13.4900   -5.1880   -0.3970 H   0  0  0  0  0  0  0  0  0  0  0  0
   14.9980   -6.1670   -0.2970 H   0  0  0  0  0  0  0  0  0  0  0  0
   14.7270   -4.8400    0.8840 H   0  0  0  0  0  0  0  0  0  0  0  0
   15.0100   -4.4560   -2.1880 H   0  0  0  0  0  0  0  0  0  0  0  0
   16.4080   -4.3230   -1.0230 H   0  0  0  0  0  0  0  0  0  0  0  0
   16.5550   -3.1320   -3.1520 H   0  0  0  0  0  0  0  0  0  0  0  0
   17.3180   -1.4210   -4.7720 H   0  0  0  0  0  0  0  0  0  0  0  0
   16.7540    0.9650   -4.4540 H   0  0  0  0  0  0  0  0  0  0  0  0
   15.9690    1.9600   -0.2420 H   0  0  0  0  0  0  0  0  0  0  0  0
   15.3590    4.3050    0.2560 H   0  0  0  0  0  0  0  0  0  0  0  0
   14.4430    5.7740   -1.5520 H   0  0  0  0  0  0  0  0  0  0  0  0
   14.8130    2.5040   -4.3760 H   0  0  0  0  0  0  0  0  0  0  0  0
   14.6750   -0.0380   -0.7970 H   0  0  0  0  0  0  0  0  0  0  0  0
   16.2780   -2.6930    0.8960 H   0  0  0  0  0  0  0  0  0  0  0  0
   13.5880   -2.0100    3.3300 H   0  0  0  0  0  0  0  0  0  0  0  0
   11.7040   -2.6060    2.2010 H   0  0  0  0  0  0  0  0  0  0  0  0
   11.4170   -1.1410    1.1360 H   0  0  0  0  0  0  0  0  0  0  0  0
   11.0120   -2.8280    0.5310 H   0  0  0  0  0  0  0  0  0  0  0  0
   15.2960   -2.3430    3.1440 H   0  0  0  0  0  0  0  0  0  0  0  0
  1  2  1  0  0  0  0
  1 24  1  0  0  0  0
  1 25  1  0  0  0  0
  1 26  1  0  0  0  0
  2 27  1  0  0  0  0
  2 28  1  0  0  0  0
  3  2  1  6  0  0  0
  3  4  1  0  0  0  0
  3 17  1  0  0  0  0
  3 22  1  0  0  0  0
  4  5  2  0  0  0  0
  4 16  1  0  0  0  0
  5  6  1  0  0  0  0
  5 29  1  0  0  0  0
  6  7  2  0  0  0  0
  6 30  1  0  0  0  0
  7  8  1  0  0  0  0
  7 31  1  0  0  0  0
  8  9  1  0  0  0  0
  8 16  2  0  0  0  0
  9 10  2  0  0  0  0
  9 15  1  0  0  0  0
 10 11  1  0  0  0  0
 10 32  1  0  0  0  0
 11 12  2  0  0  0  0
 11 33  1  0  0  0  0
 12 13  1  0  0  0  0
 12 34  1  0  0  0  0
 13 14  1  0  0  0  0
 13 15  2  0  0  0  0
 15 35  1  0  0  0  0
 16 36  1  0  0  0  0
 17 18  2  0  0  0  0
 17 37  1  0  0  0  0
 18 19  1  0  0  0  0
 18 20  1  0  0  0  0
 19 38  1  0  0  0  0
 19 42  1  0  0  0  0
 20 21  1  0  0  0  0
 20 22  1  0  0  0  0
 21 39  1  0  0  0  0
 21 40  1  0  0  0  0
 21 41  1  0  0  0  0
 22 23  2  0  0  0  0
M  CHG  1  17   1
M  END
$$$$
