CAT-17b
 OpenBabel02232411143D
Structure written by MMmdl.
 47 50  0  0  1  0  0  0  0  0999 V2000
   15.0230    4.9440    1.8150 C   0  0  0  0  0  0  0  0  0  0  0  0
   15.7160    3.9010    1.0840 O   0  0  0  0  0  0  0  0  0  0  0  0
   15.4240    3.7340   -0.2510 C   0  0  0  0  0  0  0  0  0  0  0  0
   14.9010    4.7080   -1.1140 C   0  0  0  0  0  0  0  0  0  0  0  0
   14.7030    4.3660   -2.4540 C   0  0  0  0  0  0  0  0  0  0  0  0
   14.9850    3.0780   -2.9240 C   0  0  0  0  0  0  0  0  0  0  0  0
   15.4730    2.1040   -2.0400 C   0  0  0  0  0  0  0  0  0  0  0  0
   15.6710    0.6920   -2.4490 C   0  0  0  0  0  0  0  0  0  0  0  0
   16.3570    0.3210   -3.6170 C   0  0  0  0  0  0  0  0  0  0  0  0
   16.5880   -1.0300   -3.8900 C   0  0  0  0  0  0  0  0  0  0  0  0
   16.1310   -2.0300   -3.0230 C   0  0  0  0  0  0  0  0  0  0  0  0
   15.4000   -1.6690   -1.8860 C   0  0  0  0  0  0  0  0  0  0  0  0
   14.8280   -2.6930   -0.9280 C   0  0  1  0  0  0  0  0  0  0  0  0
   15.0600   -4.1540   -1.2770 C   0  0  0  0  0  0  0  0  0  0  0  0
   16.2700   -4.8980   -0.7420 C   0  0  0  0  0  0  0  0  0  0  0  0
   14.8930   -5.2410   -0.2200 C   0  0  0  0  0  0  0  0  0  0  0  0
   15.2770   -2.3540    0.4770 N   0  3  0  0  0  0  0  0  0  0  0  0
   14.1870   -2.3780    1.3540 C   0  0  0  0  0  0  0  0  0  0  0  0
   14.3230   -2.4430    2.7110 N   0  0  0  0  0  0  0  0  0  0  0  0
   12.9970   -2.4070    0.6310 N   0  0  0  0  0  0  0  0  0  0  0  0
   11.6640   -2.2780    1.2510 C   0  0  0  0  0  0  0  0  0  0  0  0
   13.2750   -2.5170   -0.8170 C   0  0  0  0  0  0  0  0  0  0  0  0
   12.4110   -2.4730   -1.6320 O   0  0  0  0  0  0  0  0  0  0  0  0
   15.1670   -0.3140   -1.6110 C   0  0  0  0  0  0  0  0  0  0  0  0
   15.7230    2.4380   -0.7040 C   0  0  0  0  0  0  0  0  0  0  0  0
   15.1600    4.5860    2.8640 H   0  0  0  0  0  0  0  0  0  0  0  0
   15.5240    5.9140    1.6300 H   0  0  0  0  0  0  0  0  0  0  0  0
   13.9570    4.9660    1.5240 H   0  0  0  0  0  0  0  0  0  0  0  0
   14.6380    5.7040   -0.7630 H   0  0  0  0  0  0  0  0  0  0  0  0
   14.3010    5.1150   -3.1480 H   0  0  0  0  0  0  0  0  0  0  0  0
   14.8050    2.8310   -3.9730 H   0  0  0  0  0  0  0  0  0  0  0  0
   16.7170    1.0820   -4.3160 H   0  0  0  0  0  0  0  0  0  0  0  0
   17.1450   -1.3110   -4.7900 H   0  0  0  0  0  0  0  0  0  0  0  0
   16.3490   -3.0780   -3.2360 H   0  0  0  0  0  0  0  0  0  0  0  0
   14.7210   -4.3930   -2.3010 H   0  0  0  0  0  0  0  0  0  0  0  0
   16.8030   -5.5790   -1.4030 H   0  0  0  0  0  0  0  0  0  0  0  0
   16.9750   -4.3770   -0.0900 H   0  0  0  0  0  0  0  0  0  0  0  0
   14.6350   -4.9630    0.8090 H   0  0  0  0  0  0  0  0  0  0  0  0
   14.4150   -6.1840   -0.5180 H   0  0  0  0  0  0  0  0  0  0  0  0
   16.2100   -2.6830    0.8480 H   0  0  0  0  0  0  0  0  0  0  0  0
   13.6030   -2.0290    3.3530 H   0  0  0  0  0  0  0  0  0  0  0  0
   11.3710   -1.1960    1.2780 H   0  0  0  0  0  0  0  0  0  0  0  0
   11.6760   -2.6900    2.2960 H   0  0  0  0  0  0  0  0  0  0  0  0
   10.9170   -2.8630    0.6490 H   0  0  0  0  0  0  0  0  0  0  0  0
   14.5920   -0.0430   -0.7270 H   0  0  0  0  0  0  0  0  0  0  0  0
   16.1110    1.7020   -0.0030 H   0  0  0  0  0  0  0  0  0  0  0  0
   15.2980   -2.3750    3.1180 H   0  0  0  0  0  0  0  0  0  0  0  0
  1  2  1  0  0  0  0
  1 26  1  0  0  0  0
  1 27  1  0  0  0  0
  1 28  1  0  0  0  0
  2  3  1  0  0  0  0
  3  4  2  0  0  0  0
  3 25  1  0  0  0  0
  4  5  1  0  0  0  0
  4 29  1  0  0  0  0
  5  6  2  0  0  0  0
  5 30  1  0  0  0  0
  6  7  1  0  0  0  0
  6 31  1  0  0  0  0
  7  8  1  0  0  0  0
  7 25  2  0  0  0  0
  8  9  2  0  0  0  0
  8 24  1  0  0  0  0
  9 10  1  0  0  0  0
  9 32  1  0  0  0  0
 10 11  2  0  0  0  0
 10 33  1  0  0  0  0
 11 12  1  0  0  0  0
 11 34  1  0  0  0  0
 12 24  2  0  0  0  0
 13 12  1  6  0  0  0
 13 14  1  0  0  0  0
 13 17  1  0  0  0  0
 13 22  1  0  0  0  0
 14 15  1  0  0  0  0
 14 16  1  0  0  0  0
 14 35  1  0  0  0  0
 15 16  1  0  0  0  0
 15 36  1  0  0  0  0
 15 37  1  0  0  0  0
 16 38  1  0  0  0  0
 16 39  1  0  0  0  0
 17 18  2  0  0  0  0
 17 40  1  0  0  0  0
 18 19  1  0  0  0  0
 18 20  1  0  0  0  0
 19 41  1  0  0  0  0
 19 47  1  0  0  0  0
 20 21  1  0  0  0  0
 20 22  1  0  0  0  0
 21 42  1  0  0  0  0
 21 43  1  0  0  0  0
 21 44  1  0  0  0  0
 22 23  2  0  0  0  0
 24 45  1  0  0  0  0
 25 46  1  0  0  0  0
M  CHG  1  17   1
M  END
$$$$
