18633-1
 OpenBabel02232411163D
Structure written by MMmdl.
 42 43  0  0  0  0  0  0  0  0999 V2000
   23.2210   10.8560   29.0530 C   0  0  0  0  0  0  0  0  0  0  0  0
   23.4960   11.0640   30.5270 C   0  0  0  0  0  0  0  0  0  0  0  0
   22.2300   11.1320   31.2870 O   0  0  0  0  0  0  0  0  0  0  0  0
   21.5830    9.9920   31.6130 C   0  0  0  0  0  0  0  0  0  0  0  0
   22.0550    8.8020   31.1740 N   0  0  0  0  0  0  0  0  0  0  0  0
   21.3220    7.6660   31.4850 C   0  0  0  0  0  0  0  0  0  0  0  0
   20.1620    7.7070   32.2510 C   0  0  0  0  0  0  0  0  0  0  0  0
   19.6810    8.9590   32.7210 C   0  0  0  0  0  0  0  0  0  0  0  0
   18.5260    9.0110   33.4590 N   0  0  0  0  0  0  0  0  0  0  0  0
   20.4020   10.1530   32.3970 C   0  0  0  0  0  0  0  0  0  0  0  0
   20.0030   11.4530   32.7750 C   0  0  0  0  0  0  0  0  0  0  0  0
   19.7280   12.5470   33.0440 N   0  0  0  0  0  0  0  0  0  0  0  0
   21.8970    6.5090   30.9090 N   0  0  0  0  0  0  0  0  0  0  0  0
   21.3500    5.2000   30.8830 C   0  0  0  0  0  0  0  0  0  0  0  0
   20.3010    4.9290   31.4270 O   0  0  0  0  0  0  0  0  0  0  0  0
   22.1710    4.2190   30.0590 C   0  0  0  0  0  0  0  0  0  0  0  0
   23.4440    3.8170   30.7510 C   0  0  0  0  0  0  0  0  0  0  0  0
   23.4760    2.6890   31.5800 C   0  0  0  0  0  0  0  0  0  0  0  0
   24.6500    2.3160   32.2420 C   0  0  0  0  0  0  0  0  0  0  0  0
   25.8060    3.0800   32.0490 C   0  0  0  0  0  0  0  0  0  0  0  0
   25.8050    4.2070   31.1980 C   0  0  0  0  0  0  0  0  0  0  0  0
   24.6260    4.5610   30.5550 C   0  0  0  0  0  0  0  0  0  0  0  0
   27.0390    2.8410   32.6130 O   0  0  0  0  0  0  0  0  0  0  0  0
   27.1660    1.7220   33.5280 C   0  0  0  0  0  0  0  0  0  0  0  0
   22.8620    9.8200   28.8490 H   0  0  0  0  0  0  0  0  0  0  0  0
   22.4630   11.5790   28.6760 H   0  0  0  0  0  0  0  0  0  0  0  0
   24.1660   11.0140   28.4760 H   0  0  0  0  0  0  0  0  0  0  0  0
   23.8860   12.0890   30.7440 H   0  0  0  0  0  0  0  0  0  0  0  0
   24.1460   10.2670   30.9550 H   0  0  0  0  0  0  0  0  0  0  0  0
   19.6050    6.7960   32.4820 H   0  0  0  0  0  0  0  0  0  0  0  0
   18.0260    8.1450   33.7380 H   0  0  0  0  0  0  0  0  0  0  0  0
   18.1370    9.9000   33.7740 H   0  0  0  0  0  0  0  0  0  0  0  0
   22.7990    6.6710   30.4180 H   0  0  0  0  0  0  0  0  0  0  0  0
   21.5450    3.3090   29.8680 H   0  0  0  0  0  0  0  0  0  0  0  0
   22.4120    4.6860   29.0670 H   0  0  0  0  0  0  0  0  0  0  0  0
   22.5830    2.0730   31.7170 H   0  0  0  0  0  0  0  0  0  0  0  0
   24.6400    1.4340   32.8860 H   0  0  0  0  0  0  0  0  0  0  0  0
   26.7180    4.7870   31.0450 H   0  0  0  0  0  0  0  0  0  0  0  0
   24.6340    5.4230   29.8800 H   0  0  0  0  0  0  0  0  0  0  0  0
   28.2430    1.7840   33.8120 H   0  0  0  0  0  0  0  0  0  0  0  0
   26.9470    0.7670   33.0010 H   0  0  0  0  0  0  0  0  0  0  0  0
   26.5070    1.8700   34.4100 H   0  0  0  0  0  0  0  0  0  0  0  0
  1  2  1  0  0  0  0
  1 25  1  0  0  0  0
  1 26  1  0  0  0  0
  1 27  1  0  0  0  0
  2  3  1  0  0  0  0
  2 28  1  0  0  0  0
  2 29  1  0  0  0  0
  3  4  1  0  0  0  0
  4 10  2  0  0  0  0
  4  5  1  0  0  0  0
  5  6  2  0  0  0  0
  6  7  1  0  0  0  0
  6 13  1  0  0  0  0
  7  8  2  0  0  0  0
  7 30  1  0  0  0  0
  8  9  1  0  0  0  0
  8 10  1  0  0  0  0
  9 31  1  0  0  0  0
  9 32  1  0  0  0  0
 10 11  1  0  0  0  0
 11 12  3  0  0  0  0
 13 14  1  0  0  0  0
 13 33  1  0  0  0  0
 14 15  2  0  0  0  0
 14 16  1  0  0  0  0
 16 17  1  0  0  0  0
 16 34  1  0  0  0  0
 16 35  1  0  0  0  0
 17 22  2  0  0  0  0
 17 18  1  0  0  0  0
 18 19  2  0  0  0  0
 18 36  1  0  0  0  0
 19 20  1  0  0  0  0
 19 37  1  0  0  0  0
 20 21  2  0  0  0  0
 20 23  1  0  0  0  0
 21 22  1  0  0  0  0
 21 38  1  0  0  0  0
 22 39  1  0  0  0  0
 23 24  1  0  0  0  0
 24 40  1  0  0  0  0
 24 41  1  0  0  0  0
 24 42  1  0  0  0  0
M  END
$$$$
