18639-1
 OpenBabel02232411163D
Structure written by MMmdl.
 48 49  0  0  0  0  0  0  0  0999 V2000
   24.4280   10.9260   30.7550 C   0  0  0  0  0  0  0  0  0  0  0  0
   23.1010   11.2700   30.1130 C   0  0  0  0  0  0  0  0  0  0  0  0
   22.0230   11.3270   31.1230 O   0  0  0  0  0  0  0  0  0  0  0  0
   21.4430   10.1760   31.5330 C   0  0  0  0  0  0  0  0  0  0  0  0
   21.9270    8.9880   31.1000 N   0  0  0  0  0  0  0  0  0  0  0  0
   21.2360    7.8440   31.4690 C   0  0  0  0  0  0  0  0  0  0  0  0
   20.0990    7.8730   32.2680 C   0  0  0  0  0  0  0  0  0  0  0  0
   19.6060    9.1240   32.7300 C   0  0  0  0  0  0  0  0  0  0  0  0
   18.4700    9.1590   33.4970 N   0  0  0  0  0  0  0  0  0  0  0  0
   20.2940   10.3260   32.3660 C   0  0  0  0  0  0  0  0  0  0  0  0
   19.8810   11.6230   32.7370 C   0  0  0  0  0  0  0  0  0  0  0  0
   19.5930   12.7150   33.0020 N   0  0  0  0  0  0  0  0  0  0  0  0
   21.8290    6.6810   30.9230 N   0  0  0  0  0  0  0  0  0  0  0  0
   21.2660    5.3890   30.8730 C   0  0  0  0  0  0  0  0  0  0  0  0
   20.1930    5.1160   31.3670 O   0  0  0  0  0  0  0  0  0  0  0  0
   22.1010    4.3980   30.0680 C   0  0  0  0  0  0  0  0  0  0  0  0
   23.4760    4.1520   30.6160 C   0  0  0  0  0  0  0  0  0  0  0  0
   24.5570    5.0310   30.2900 C   0  0  0  0  0  0  0  0  0  0  0  0
   24.1780    6.0800   29.4630 O   0  0  0  0  0  0  0  0  0  0  0  0
   25.1190    7.1750   29.2860 C   0  0  0  0  0  0  0  0  0  0  0  0
   25.8460    4.8010   30.7460 C   0  0  0  0  0  0  0  0  0  0  0  0
   26.1000    3.6850   31.5720 C   0  0  0  0  0  0  0  0  0  0  0  0
   27.4620    3.4460   32.0580 N   0  3  0  0  0  0  0  0  0  0  0  0
   27.6210    2.6300   32.9530 O   0  5  0  0  0  0  0  0  0  0  0  0
   28.3840    4.0680   31.5450 O   0  0  0  0  0  0  0  0  0  0  0  0
   25.0430    2.8060   31.9030 C   0  0  0  0  0  0  0  0  0  0  0  0
   23.7390    3.0470   31.4100 C   0  0  0  0  0  0  0  0  0  0  0  0
   25.4130    1.7680   32.7040 O   0  0  0  0  0  0  0  0  0  0  0  0
   24.4310    0.7190   32.9520 C   0  0  0  0  0  0  0  0  0  0  0  0
   25.2180   10.8790   29.9650 H   0  0  0  0  0  0  0  0  0  0  0  0
   24.7220   11.6930   31.5030 H   0  0  0  0  0  0  0  0  0  0  0  0
   24.3880    9.9280   31.2530 H   0  0  0  0  0  0  0  0  0  0  0  0
   23.0660   12.3260   29.7510 H   0  0  0  0  0  0  0  0  0  0  0  0
   22.8200   10.5480   29.3130 H   0  0  0  0  0  0  0  0  0  0  0  0
   19.5690    6.9550   32.5280 H   0  0  0  0  0  0  0  0  0  0  0  0
   17.9720    8.2830   33.7500 H   0  0  0  0  0  0  0  0  0  0  0  0
   18.0560   10.0420   33.7950 H   0  0  0  0  0  0  0  0  0  0  0  0
   22.7360    6.8420   30.4150 H   0  0  0  0  0  0  0  0  0  0  0  0
   21.5400    3.4260   30.0180 H   0  0  0  0  0  0  0  0  0  0  0  0
   22.1970    4.8040   29.0210 H   0  0  0  0  0  0  0  0  0  0  0  0
   25.4760    7.5520   30.2690 H   0  0  0  0  0  0  0  0  0  0  0  0
   25.9500    6.8340   28.6330 H   0  0  0  0  0  0  0  0  0  0  0  0
   24.4780    7.9320   28.7760 H   0  0  0  0  0  0  0  0  0  0  0  0
   26.6760    5.4600   30.4660 H   0  0  0  0  0  0  0  0  0  0  0  0
   22.9340    2.3480   31.6510 H   0  0  0  0  0  0  0  0  0  0  0  0
   25.0330   -0.0110   33.5450 H   0  0  0  0  0  0  0  0  0  0  0  0
   23.5860    1.1190   33.5520 H   0  0  0  0  0  0  0  0  0  0  0  0
   24.0970    0.2720   31.9900 H   0  0  0  0  0  0  0  0  0  0  0  0
  1  2  1  0  0  0  0
  1 30  1  0  0  0  0
  1 31  1  0  0  0  0
  1 32  1  0  0  0  0
  2  3  1  0  0  0  0
  2 33  1  0  0  0  0
  2 34  1  0  0  0  0
  3  4  1  0  0  0  0
  4 10  2  0  0  0  0
  4  5  1  0  0  0  0
  5  6  2  0  0  0  0
  6  7  1  0  0  0  0
  6 13  1  0  0  0  0
  7  8  2  0  0  0  0
  7 35  1  0  0  0  0
  8  9  1  0  0  0  0
  8 10  1  0  0  0  0
  9 36  1  0  0  0  0
  9 37  1  0  0  0  0
 10 11  1  0  0  0  0
 11 12  3  0  0  0  0
 13 14  1  0  0  0  0
 13 38  1  0  0  0  0
 14 15  2  0  0  0  0
 14 16  1  0  0  0  0
 16 17  1  0  0  0  0
 16 39  1  0  0  0  0
 16 40  1  0  0  0  0
 17 27  2  0  0  0  0
 17 18  1  0  0  0  0
 18 19  1  0  0  0  0
 18 21  2  0  0  0  0
 19 20  1  0  0  0  0
 20 41  1  0  0  0  0
 20 42  1  0  0  0  0
 20 43  1  0  0  0  0
 21 22  1  0  0  0  0
 21 44  1  0  0  0  0
 22 23  1  0  0  0  0
 22 26  2  0  0  0  0
 23 24  1  0  0  0  0
 23 25  2  0  0  0  0
 26 27  1  0  0  0  0
 26 28  1  0  0  0  0
 27 45  1  0  0  0  0
 28 29  1  0  0  0  0
 29 46  1  0  0  0  0
 29 47  1  0  0  0  0
 29 48  1  0  0  0  0
M  CHG  2  23   1  24  -1
M  END
$$$$
