18636-1
 OpenBabel02232411163D
Structure written by MMmdl.
 38 39  0  0  0  0  0  0  0  0999 V2000
   24.4580   11.0020   30.7740 C   0  0  0  0  0  0  0  0  0  0  0  0
   23.1160   11.2430   30.1160 C   0  0  0  0  0  0  0  0  0  0  0  0
   22.0420   11.2630   31.1330 O   0  0  0  0  0  0  0  0  0  0  0  0
   21.4770   10.1000   31.5260 C   0  0  0  0  0  0  0  0  0  0  0  0
   21.9670    8.9220   31.0730 N   0  0  0  0  0  0  0  0  0  0  0  0
   21.2900    7.7660   31.4300 C   0  0  0  0  0  0  0  0  0  0  0  0
   20.1600    7.7730   32.2420 C   0  0  0  0  0  0  0  0  0  0  0  0
   19.6540    9.0150   32.7170 C   0  0  0  0  0  0  0  0  0  0  0  0
   18.5130    9.0420   33.4760 N   0  0  0  0  0  0  0  0  0  0  0  0
   20.3310   10.2260   32.3670 C   0  0  0  0  0  0  0  0  0  0  0  0
   19.9110   11.5150   32.7590 C   0  0  0  0  0  0  0  0  0  0  0  0
   19.6210   12.6020   33.0420 N   0  0  0  0  0  0  0  0  0  0  0  0
   21.8840    6.6200   30.8440 N   0  0  0  0  0  0  0  0  0  0  0  0
   21.3620    5.3070   30.8180 C   0  0  0  0  0  0  0  0  0  0  0  0
   20.3640    4.9790   31.4240 O   0  0  0  0  0  0  0  0  0  0  0  0
   22.1540    4.3620   29.9180 C   0  0  0  0  0  0  0  0  0  0  0  0
   23.3830    3.8340   30.5980 C   0  0  0  0  0  0  0  0  0  0  0  0
   24.6670    4.3610   30.3820 C   0  0  0  0  0  0  0  0  0  0  0  0
   24.9950    5.6940   29.0480 Br  0  0  0  0  0  0  0  0  0  0  0  0
   25.7790    3.8960   31.0920 C   0  0  0  0  0  0  0  0  0  0  0  0
   25.6320    2.8550   32.0110 C   0  0  0  0  0  0  0  0  0  0  0  0
   24.3690    2.2830   32.1820 C   0  0  0  0  0  0  0  0  0  0  0  0
   24.1710    0.8030   33.3710 Br  0  0  0  0  0  0  0  0  0  0  0  0
   23.2530    2.7570   31.4930 C   0  0  0  0  0  0  0  0  0  0  0  0
   24.6950   11.8050   31.5040 H   0  0  0  0  0  0  0  0  0  0  0  0
   25.2540   10.9870   29.9880 H   0  0  0  0  0  0  0  0  0  0  0  0
   24.4810   10.0150   31.2930 H   0  0  0  0  0  0  0  0  0  0  0  0
   23.0150   12.2850   29.7260 H   0  0  0  0  0  0  0  0  0  0  0  0
   22.8820   10.4850   29.3360 H   0  0  0  0  0  0  0  0  0  0  0  0
   19.6440    6.8480   32.5020 H   0  0  0  0  0  0  0  0  0  0  0  0
   18.0230    8.1680   33.7470 H   0  0  0  0  0  0  0  0  0  0  0  0
   18.1050    9.9240   33.7880 H   0  0  0  0  0  0  0  0  0  0  0  0
   22.7510    6.8190   30.2980 H   0  0  0  0  0  0  0  0  0  0  0  0
   21.4820    3.5060   29.6390 H   0  0  0  0  0  0  0  0  0  0  0  0
   22.4170    4.8950   28.9630 H   0  0  0  0  0  0  0  0  0  0  0  0
   26.7740    4.3350   30.9280 H   0  0  0  0  0  0  0  0  0  0  0  0
   26.5050    2.4920   32.5700 H   0  0  0  0  0  0  0  0  0  0  0  0
   22.2770    2.2800   31.6410 H   0  0  0  0  0  0  0  0  0  0  0  0
  1  2  1  0  0  0  0
  1 25  1  0  0  0  0
  1 26  1  0  0  0  0
  1 27  1  0  0  0  0
  2  3  1  0  0  0  0
  2 28  1  0  0  0  0
  2 29  1  0  0  0  0
  3  4  1  0  0  0  0
  4 10  2  0  0  0  0
  4  5  1  0  0  0  0
  5  6  2  0  0  0  0
  6  7  1  0  0  0  0
  6 13  1  0  0  0  0
  7  8  2  0  0  0  0
  7 30  1  0  0  0  0
  8  9  1  0  0  0  0
  8 10  1  0  0  0  0
  9 31  1  0  0  0  0
  9 32  1  0  0  0  0
 10 11  1  0  0  0  0
 11 12  3  0  0  0  0
 13 14  1  0  0  0  0
 13 33  1  0  0  0  0
 14 15  2  0  0  0  0
 14 16  1  0  0  0  0
 16 17  1  0  0  0  0
 16 34  1  0  0  0  0
 16 35  1  0  0  0  0
 17 24  2  0  0  0  0
 17 18  1  0  0  0  0
 18 19  1  0  0  0  0
 18 20  2  0  0  0  0
 20 21  1  0  0  0  0
 20 36  1  0  0  0  0
 21 22  2  0  0  0  0
 21 37  1  0  0  0  0
 22 23  1  0  0  0  0
 22 24  1  0  0  0  0
 24 38  1  0  0  0  0
M  END
$$$$
