CAT-4j
 OpenBabel02232411143D
Structure written by MMmdl.
 45 48  0  0  1  0  0  0  0  0999 V2000
   11.5070   -2.6910    1.5390 C   0  0  0  0  0  0  0  0  0  0  0  0
   12.8310   -2.7080    0.8830 N   0  0  0  0  0  0  0  0  0  0  0  0
   14.0410   -2.5750    1.5600 C   0  0  0  0  0  0  0  0  0  0  0  0
   14.2410   -2.5290    2.9030 N   0  0  0  0  0  0  0  0  0  0  0  0
   15.0970   -2.5650    0.6460 N   0  3  0  0  0  0  0  0  0  0  0  0
   14.6220   -3.1130   -0.6880 C   0  0  2  0  0  0  0  0  0  0  0  0
   15.0310   -4.5740   -0.6780 C   0  0  0  0  0  0  0  0  0  0  0  0
   16.3970   -4.8880   -0.7570 C   0  0  0  0  0  0  0  0  0  0  0  0
   16.8300   -6.1970   -0.5350 C   0  0  0  0  0  0  0  0  0  0  0  0
   15.9070   -7.2020   -0.2250 C   0  0  0  0  0  0  0  0  0  0  0  0
   14.5450   -6.8910   -0.1440 C   0  0  0  0  0  0  0  0  0  0  0  0
   14.1050   -5.5870   -0.3820 C   0  0  0  0  0  0  0  0  0  0  0  0
   15.0710   -2.1910   -1.8010 C   0  0  0  0  0  0  0  0  0  0  0  0
   15.5190   -2.6980   -3.0230 C   0  0  0  0  0  0  0  0  0  0  0  0
   15.8510   -1.8070   -4.0490 C   0  0  0  0  0  0  0  0  0  0  0  0
   15.7420   -0.4280   -3.8720 C   0  0  0  0  0  0  0  0  0  0  0  0
   15.2770    0.0900   -2.6480 C   0  0  0  0  0  0  0  0  0  0  0  0
   15.0970    1.5420   -2.4580 C   0  0  0  0  0  0  0  0  0  0  0  0
   15.4640    2.1710   -1.2580 C   0  0  0  0  0  0  0  0  0  0  0  0
   15.2100    3.5340   -1.0880 C   0  0  0  0  0  0  0  0  0  0  0  0
   14.5880    4.2440   -2.1280 C   0  0  0  0  0  0  0  0  0  0  0  0
   14.2530    3.6570   -3.3080 N   0  0  0  0  0  0  0  0  0  0  0  0
   14.5090    2.3360   -3.4710 C   0  0  0  0  0  0  0  0  0  0  0  0
   14.9510   -0.8020   -1.6170 C   0  0  0  0  0  0  0  0  0  0  0  0
   13.0690   -2.9610   -0.5560 C   0  0  0  0  0  0  0  0  0  0  0  0
   12.1880   -2.9890   -1.3510 O   0  0  0  0  0  0  0  0  0  0  0  0
   10.8540   -3.4770    1.0710 H   0  0  0  0  0  0  0  0  0  0  0  0
   11.6020   -2.9180    2.6340 H   0  0  0  0  0  0  0  0  0  0  0  0
   11.0380   -1.6800    1.4070 H   0  0  0  0  0  0  0  0  0  0  0  0
   15.2290   -2.3980    3.2620 H   0  0  0  0  0  0  0  0  0  0  0  0
   16.0650   -2.8070    0.9920 H   0  0  0  0  0  0  0  0  0  0  0  0
   17.1210   -4.0920   -0.9470 H   0  0  0  0  0  0  0  0  0  0  0  0
   17.9030   -6.4090   -0.5400 H   0  0  0  0  0  0  0  0  0  0  0  0
   16.2370   -8.2290   -0.0310 H   0  0  0  0  0  0  0  0  0  0  0  0
   13.8150   -7.6670    0.1100 H   0  0  0  0  0  0  0  0  0  0  0  0
   13.0360   -5.3810   -0.3100 H   0  0  0  0  0  0  0  0  0  0  0  0
   15.6090   -3.7750   -3.1710 H   0  0  0  0  0  0  0  0  0  0  0  0
   16.2000   -2.1920   -5.0070 H   0  0  0  0  0  0  0  0  0  0  0  0
   16.0280    0.2430   -4.6890 H   0  0  0  0  0  0  0  0  0  0  0  0
   15.9370    1.5970   -0.4570 H   0  0  0  0  0  0  0  0  0  0  0  0
   15.4830    4.0290   -0.1520 H   0  0  0  0  0  0  0  0  0  0  0  0
   14.3390    5.3120   -2.0150 H   0  0  0  0  0  0  0  0  0  0  0  0
   14.2250    1.8910   -4.4400 H   0  0  0  0  0  0  0  0  0  0  0  0
   14.6060   -0.4190   -0.6560 H   0  0  0  0  0  0  0  0  0  0  0  0
   13.5340   -2.1060    3.5530 H   0  0  0  0  0  0  0  0  0  0  0  0
  1  2  1  0  0  0  0
  1 27  1  0  0  0  0
  1 28  1  0  0  0  0
  1 29  1  0  0  0  0
  2  3  1  0  0  0  0
  2 25  1  0  0  0  0
  3  4  1  0  0  0  0
  3  5  2  0  0  0  0
  4 30  1  0  0  0  0
  4 45  1  0  0  0  0
  5  6  1  0  0  0  0
  5 31  1  0  0  0  0
  6  7  1  6  0  0  0
  6 13  1  0  0  0  0
  6 25  1  0  0  0  0
  7  8  2  0  0  0  0
  7 12  1  0  0  0  0
  8  9  1  0  0  0  0
  8 32  1  0  0  0  0
  9 10  2  0  0  0  0
  9 33  1  0  0  0  0
 10 11  1  0  0  0  0
 10 34  1  0  0  0  0
 11 12  2  0  0  0  0
 11 35  1  0  0  0  0
 12 36  1  0  0  0  0
 13 14  2  0  0  0  0
 13 24  1  0  0  0  0
 14 15  1  0  0  0  0
 14 37  1  0  0  0  0
 15 16  2  0  0  0  0
 15 38  1  0  0  0  0
 16 17  1  0  0  0  0
 16 39  1  0  0  0  0
 17 18  1  0  0  0  0
 17 24  2  0  0  0  0
 18 19  2  0  0  0  0
 18 23  1  0  0  0  0
 19 20  1  0  0  0  0
 19 40  1  0  0  0  0
 20 21  2  0  0  0  0
 20 41  1  0  0  0  0
 21 22  1  0  0  0  0
 21 42  1  0  0  0  0
 22 23  2  0  0  0  0
 23 43  1  0  0  0  0
 24 44  1  0  0  0  0
 25 26  2  0  0  0  0
M  CHG  1   5   1
M  END
$$$$
