17124-1
 OpenBabel02232411163D
Structure written by MMmdl.
 46 47  0  0  0  0  0  0  0  0999 V2000
   23.8260   12.7100   30.3340 C   0  0  0  0  0  0  0  0  0  0  0  0
   23.3860   11.2620   30.4400 C   0  0  0  0  0  0  0  0  0  0  0  0
   22.1360   11.3500   31.2380 O   0  0  0  0  0  0  0  0  0  0  0  0
   21.5090   10.2050   31.5820 C   0  0  0  0  0  0  0  0  0  0  0  0
   21.9930    9.0190   31.1410 N   0  0  0  0  0  0  0  0  0  0  0  0
   21.2650    7.8790   31.4510 C   0  0  0  0  0  0  0  0  0  0  0  0
   20.1110    7.9120   32.2280 C   0  0  0  0  0  0  0  0  0  0  0  0
   19.6240    9.1580   32.7040 C   0  0  0  0  0  0  0  0  0  0  0  0
   18.4850    9.1900   33.4690 N   0  0  0  0  0  0  0  0  0  0  0  0
   20.3250   10.3580   32.3630 C   0  0  0  0  0  0  0  0  0  0  0  0
   19.8980   11.6560   32.7130 C   0  0  0  0  0  0  0  0  0  0  0  0
   19.5930   12.7490   32.9570 N   0  0  0  0  0  0  0  0  0  0  0  0
   21.8250    6.7170   30.8730 N   0  0  0  0  0  0  0  0  0  0  0  0
   21.2010    5.4520   30.7710 C   0  0  0  0  0  0  0  0  0  0  0  0
   20.1180    5.2140   31.2630 O   0  0  0  0  0  0  0  0  0  0  0  0
   21.9830    4.4530   29.9270 C   0  0  0  0  0  0  0  0  0  0  0  0
   23.3050    4.0750   30.5230 C   0  0  0  0  0  0  0  0  0  0  0  0
   24.4540    4.8740   30.2910 C   0  0  0  0  0  0  0  0  0  0  0  0
   24.2050    5.9650   29.4710 O   0  0  0  0  0  0  0  0  0  0  0  0
   25.2490    6.9670   29.3370 C   0  0  0  0  0  0  0  0  0  0  0  0
   25.7010    4.5450   30.8310 C   0  0  0  0  0  0  0  0  0  0  0  0
   25.8160    3.3980   31.6150 C   0  0  0  0  0  0  0  0  0  0  0  0
   27.5130    2.9490   32.3420 Br  0  0  0  0  0  0  0  0  0  0  0  0
   24.6890    2.5840   31.8490 C   0  0  0  0  0  0  0  0  0  0  0  0
   23.4420    2.9210   31.2960 C   0  0  0  0  0  0  0  0  0  0  0  0
   24.9450    1.5020   32.6550 O   0  0  0  0  0  0  0  0  0  0  0  0
   23.9140    0.4850   32.7680 C   0  0  0  0  0  0  0  0  0  0  0  0
   24.0540   13.1410   31.3340 H   0  0  0  0  0  0  0  0  0  0  0  0
   23.0410   13.3320   29.8440 H   0  0  0  0  0  0  0  0  0  0  0  0
   24.7500   12.7570   29.7040 H   0  0  0  0  0  0  0  0  0  0  0  0
   23.1240   10.8230   29.4510 H   0  0  0  0  0  0  0  0  0  0  0  0
   24.1140   10.6330   30.9990 H   0  0  0  0  0  0  0  0  0  0  0  0
   19.5600    6.9980   32.4600 H   0  0  0  0  0  0  0  0  0  0  0  0
   17.9780    8.3170   33.7110 H   0  0  0  0  0  0  0  0  0  0  0  0
   18.0760   10.0740   33.7760 H   0  0  0  0  0  0  0  0  0  0  0  0
   22.7470    6.8540   30.3910 H   0  0  0  0  0  0  0  0  0  0  0  0
   21.3530    3.5360   29.7920 H   0  0  0  0  0  0  0  0  0  0  0  0
   22.1560    4.9160   28.9150 H   0  0  0  0  0  0  0  0  0  0  0  0
   24.7250    7.7520   28.7450 H   0  0  0  0  0  0  0  0  0  0  0  0
   25.5500    7.3520   30.3350 H   0  0  0  0  0  0  0  0  0  0  0  0
   26.1060    6.5390   28.7750 H   0  0  0  0  0  0  0  0  0  0  0  0
   26.5820    5.1690   30.6390 H   0  0  0  0  0  0  0  0  0  0  0  0
   22.5730    2.2810   31.4740 H   0  0  0  0  0  0  0  0  0  0  0  0
   24.4220   -0.2720   33.4140 H   0  0  0  0  0  0  0  0  0  0  0  0
   23.0120    0.8970   33.2690 H   0  0  0  0  0  0  0  0  0  0  0  0
   23.6850    0.0630   31.7650 H   0  0  0  0  0  0  0  0  0  0  0  0
  1  2  1  0  0  0  0
  1 28  1  0  0  0  0
  1 29  1  0  0  0  0
  1 30  1  0  0  0  0
  2  3  1  0  0  0  0
  2 31  1  0  0  0  0
  2 32  1  0  0  0  0
  3  4  1  0  0  0  0
  4 10  2  0  0  0  0
  4  5  1  0  0  0  0
  5  6  2  0  0  0  0
  6  7  1  0  0  0  0
  6 13  1  0  0  0  0
  7  8  2  0  0  0  0
  7 33  1  0  0  0  0
  8  9  1  0  0  0  0
  8 10  1  0  0  0  0
  9 34  1  0  0  0  0
  9 35  1  0  0  0  0
 10 11  1  0  0  0  0
 11 12  3  0  0  0  0
 13 14  1  0  0  0  0
 13 36  1  0  0  0  0
 14 15  2  0  0  0  0
 14 16  1  0  0  0  0
 16 17  1  0  0  0  0
 16 37  1  0  0  0  0
 16 38  1  0  0  0  0
 17 25  2  0  0  0  0
 17 18  1  0  0  0  0
 18 19  1  0  0  0  0
 18 21  2  0  0  0  0
 19 20  1  0  0  0  0
 20 39  1  0  0  0  0
 20 40  1  0  0  0  0
 20 41  1  0  0  0  0
 21 22  1  0  0  0  0
 21 42  1  0  0  0  0
 22 23  1  0  0  0  0
 22 24  2  0  0  0  0
 24 25  1  0  0  0  0
 24 26  1  0  0  0  0
 25 43  1  0  0  0  0
 26 27  1  0  0  0  0
 27 44  1  0  0  0  0
 27 45  1  0  0  0  0
 27 46  1  0  0  0  0
M  END
$$$$
