40 flip
                    3D
 Schrodinger Suite 2022-3.
 49 52  0  0  1  0  0  0  0  0999 V2000
    3.3740  -49.5430    4.3830 O   0  0  0  0  0  0  0  0  0  0  0  0
    2.9650  -50.1080    5.4050 C   0  0  0  0  0  0  0  0  0  0  0  0
    3.6660  -50.6550    6.2790 O   0  5  0  0  0  0  0  0  0  0  0  0
    1.4420  -50.2020    5.6010 C   0  0  0  0  0  0  0  0  0  0  0  0
   -0.5140  -51.3020    6.0450 C   0  0  0  0  0  0  0  0  0  0  0  0
   -1.5050  -52.2400    6.3800 C   0  0  0  0  0  0  0  0  0  0  0  0
   -2.8250  -51.8180    6.3340 C   0  0  0  0  0  0  0  0  0  0  0  0
   -3.1580  -50.4920    5.9660 C   0  0  0  0  0  0  0  0  0  0  0  0
   -2.1820  -49.5560    5.6540 C   0  0  0  0  0  0  0  0  0  0  0  0
   -0.8300  -49.9380    5.7020 C   0  0  0  0  0  0  0  0  0  0  0  0
    0.4260  -49.2610    5.4570 C   0  0  0  0  0  0  0  0  0  0  0  0
    0.5430  -47.8220    5.1070 C   0  0  0  0  0  0  0  0  0  0  0  0
    0.6560  -46.8960    6.3330 C   0  0  0  0  0  0  0  0  0  0  0  0
   -0.6490  -46.7600    7.1140 C   0  0  0  0  0  0  0  0  0  0  0  0
   -1.5290  -46.0060    6.1940 O   0  0  0  0  0  0  0  0  0  0  0  0
   -2.7440  -45.6040    6.6470 C   0  0  0  0  0  0  0  0  0  0  0  0
   -3.2940  -45.9960    7.8780 C   0  0  0  0  0  0  0  0  0  0  0  0
   -4.5200  -45.4320    8.2310 C   0  0  0  0  0  0  0  0  0  0  0  0
   -5.2470  -44.5700    7.4010 C   0  0  0  0  0  0  0  0  0  0  0  0
   -4.6850  -44.2330    6.1640 C   0  0  0  0  0  0  0  0  0  0  0  0
   -3.4440  -44.7310    5.7820 C   0  0  0  0  0  0  0  0  0  0  0  0
   -1.2460  -53.2540    6.6780 H   0  0  0  0  0  0  0  0  0  0  0  0
   -3.6260  -52.5120    6.5820 H   0  0  0  0  0  0  0  0  0  0  0  0
   -4.2120  -50.2140    5.9280 H   0  0  0  0  0  0  0  0  0  0  0  0
   -2.4680  -48.5440    5.3680 H   0  0  0  0  0  0  0  0  0  0  0  0
   -0.3670  -47.5120    4.5280 H   0  0  0  0  0  0  0  0  0  0  0  0
    1.4450  -47.6480    4.4710 H   0  0  0  0  0  0  0  0  0  0  0  0
    0.9560  -45.8800    5.9800 H   0  0  0  0  0  0  0  0  0  0  0  0
    1.4320  -47.2840    7.0360 H   0  0  0  0  0  0  0  0  0  0  0  0
   -0.5280  -46.1420    8.0300 H   0  0  0  0  0  0  0  0  0  0  0  0
   -1.1380  -47.7390    7.3120 H   0  0  0  0  0  0  0  0  0  0  0  0
   -2.8020  -46.7270    8.5060 H   0  0  0  0  0  0  0  0  0  0  0  0
   -3.0190  -44.4490    4.8300 H   0  0  0  0  0  0  0  0  0  0  0  0
    0.8790  -51.4440    5.9540 N   0  0  0  0  0  0  0  0  0  0  0  0
    1.3680  -52.2990    6.1990 H   0  0  0  0  0  0  0  0  0  0  0  0
   -5.2320  -43.5690    5.4900 H   0  0  0  0  0  0  0  0  0  0  0  0
   -6.2160  -44.1820    7.7010 H   0  0  0  0  0  0  0  0  0  0  0  0
   -5.1220  -45.6130    9.4710 O   0  0  0  0  0  0  0  0  0  0  0  0
   -4.8410  -48.9690   11.8970 C   0  0  0  0  0  0  0  0  0  0  0  0
   -3.6710  -48.2580   11.6270 C   0  0  0  0  0  0  0  0  0  0  0  0
   -3.6770  -47.1540   10.7670 C   0  0  0  0  0  0  0  0  0  0  0  0
   -4.9000  -46.7750   10.2150 C   0  0  0  0  0  0  0  0  0  0  0  0
   -6.0920  -47.4600   10.4860 C   0  0  0  0  0  0  0  0  0  0  0  0
   -6.0560  -48.5690   11.3250 C   0  0  0  0  0  0  0  0  0  0  0  0
   -4.8150  -49.8320   12.5640 H   0  0  0  0  0  0  0  0  0  0  0  0
   -2.7500  -48.5540   12.1210 H   0  0  0  0  0  0  0  0  0  0  0  0
   -2.7560  -46.6010   10.5980 H   0  0  0  0  0  0  0  0  0  0  0  0
   -7.0030  -47.0720   10.0440 H   0  0  0  0  0  0  0  0  0  0  0  0
   -6.9610  -49.1380   11.5430 H   0  0  0  0  0  0  0  0  0  0  0  0
  1  2  2  0  0  0  0
  2  3  1  0  0  0  0
  2  4  1  0  0  0  0
  4 11  2  0  0  0  0
  4 34  1  0  0  0  0
  5  6  1  0  0  0  0
  5 10  2  0  0  0  0
  5 34  1  0  0  0  0
  6  7  2  0  0  0  0
  6 22  1  0  0  0  0
  7  8  1  0  0  0  0
  7 23  1  0  0  0  0
  8  9  2  0  0  0  0
  8 24  1  0  0  0  0
  9 10  1  0  0  0  0
  9 25  1  0  0  0  0
 10 11  1  0  0  0  0
 11 12  1  0  0  0  0
 12 26  1  0  0  0  0
 12 27  1  0  0  0  0
 12 13  1  0  0  0  0
 13 14  1  0  0  0  0
 13 28  1  0  0  0  0
 13 29  1  0  0  0  0
 14 15  1  0  0  0  0
 14 30  1  0  0  0  0
 14 31  1  0  0  0  0
 15 16  1  0  0  0  0
 16 17  1  0  0  0  0
 16 21  2  0  0  0  0
 17 18  2  0  0  0  0
 17 32  1  0  0  0  0
 18 19  1  0  0  0  0
 18 38  1  0  0  0  0
 19 20  2  0  0  0  0
 19 37  1  0  0  0  0
 20 21  1  0  0  0  0
 20 36  1  0  0  0  0
 21 33  1  0  0  0  0
 34 35  1  0  0  0  0
 38 42  1  0  0  0  0
 39 40  2  0  0  0  0
 39 44  1  0  0  0  0
 39 45  1  0  0  0  0
 40 41  1  0  0  0  0
 40 46  1  0  0  0  0
 41 42  2  0  0  0  0
 41 47  1  0  0  0  0
 42 43  1  0  0  0  0
 43 44  2  0  0  0  0
 43 48  1  0  0  0  0
 44 49  1  0  0  0  0
M  CHG  1   3  -1
M  END
$$$$
