p38a_3fmh
 OpenBabel02232411163D
Structure written by MMmdl.
 46 49  0  0  1  0  0  0  0  0999 V2000
   38.2720   37.2150   14.7930 F   0  0  0  0  0  0  0  0  0  0  0  0
   37.6820   36.6460   15.8410 C   0  0  0  0  0  0  0  0  0  0  0  0
   38.3590   36.6320   17.0640 C   0  0  0  0  0  0  0  0  0  0  0  0
   37.7040   36.1290   18.1930 C   0  0  0  0  0  0  0  0  0  0  0  0
   36.3940   36.1240   15.6650 C   0  0  0  0  0  0  0  0  0  0  0  0
   35.7790   35.5930   16.7940 C   0  0  0  0  0  0  0  0  0  0  0  0
   34.5740   35.0470   16.7130 F   0  0  0  0  0  0  0  0  0  0  0  0
   36.4150   35.6090   18.0520 C   0  0  0  0  0  0  0  0  0  0  0  0
   35.7300   34.9650   19.0940 O   0  0  0  0  0  0  0  0  0  0  0  0
   35.2390   35.8040   20.0900 C   0  0  0  0  0  0  0  0  0  0  0  0
   34.5560   34.9600   21.1100 C   0  0  0  0  0  0  0  0  0  0  0  0
   34.3490   33.7710   21.0100 O   0  0  0  0  0  0  0  0  0  0  0  0
   34.1330   35.6730   22.2850 N   0  0  0  0  0  0  0  0  0  0  0  0
   33.5320   34.9160   23.4200 C   0  0  0  0  0  0  0  0  0  0  0  0
   34.2710   37.0650   22.3980 C   0  0  0  0  0  0  0  0  0  0  0  0
   33.8640   37.6670   23.5650 N   0  0  0  0  0  0  0  0  0  0  0  0
   35.3290   37.1520   20.1560 C   0  0  0  0  0  0  0  0  0  0  0  0
   34.8160   37.8230   21.3200 C   0  0  0  0  0  0  0  0  0  0  0  0
   34.8460   39.2340   21.4750 C   0  0  0  0  0  0  0  0  0  0  0  0
   34.4640   39.8500   22.6060 N   0  0  0  0  0  0  0  0  0  0  0  0
   34.0230   39.0310   23.6590 C   0  0  0  0  0  0  0  0  0  0  0  0
   33.8120   39.6480   24.8850 N   0  0  0  0  0  0  0  0  0  0  0  0
   32.9400   39.0190   25.9260 C   0  0  2  0  0  0  0  0  0  0  0  0
   31.4740   39.3730   25.6770 C   0  0  0  0  0  0  0  0  0  0  0  0
   33.4800   39.5790   27.2780 C   0  0  0  0  0  0  0  0  0  0  0  0
   32.7360   39.0630   28.4470 N   0  0  0  0  0  0  0  0  0  0  0  0
   32.3550   37.7670   28.6110 N   0  0  0  0  0  0  0  0  0  0  0  0
   31.7500   37.7470   29.8340 C   0  0  0  0  0  0  0  0  0  0  0  0
   31.7930   39.0520   30.3920 N   0  0  0  0  0  0  0  0  0  0  0  0
   32.3890   39.8230   29.5380 N   0  0  0  0  0  0  0  0  0  0  0  0
   39.3700   37.0360   17.1540 H   0  0  0  0  0  0  0  0  0  0  0  0
   38.1960   36.1740   19.1680 H   0  0  0  0  0  0  0  0  0  0  0  0
   35.8900   36.1540   14.6970 H   0  0  0  0  0  0  0  0  0  0  0  0
   34.1180   35.1090   24.3610 H   0  0  0  0  0  0  0  0  0  0  0  0
   32.4740   35.2530   23.5880 H   0  0  0  0  0  0  0  0  0  0  0  0
   33.5410   33.8170   23.2030 H   0  0  0  0  0  0  0  0  0  0  0  0
   35.7910   37.7610   19.3770 H   0  0  0  0  0  0  0  0  0  0  0  0
   35.1850   39.8730   20.6440 H   0  0  0  0  0  0  0  0  0  0  0  0
   33.7850   40.6910   24.8980 H   0  0  0  0  0  0  0  0  0  0  0  0
   33.0810   37.8990   25.9080 H   0  0  0  0  0  0  0  0  0  0  0  0
   30.8230   38.9290   26.4620 H   0  0  0  0  0  0  0  0  0  0  0  0
   31.3350   40.4770   25.6640 H   0  0  0  0  0  0  0  0  0  0  0  0
   31.1440   38.9600   24.6940 H   0  0  0  0  0  0  0  0  0  0  0  0
   34.5690   39.2890   27.3790 H   0  0  0  0  0  0  0  0  0  0  0  0
   33.4140   40.7050   27.2880 H   0  0  0  0  0  0  0  0  0  0  0  0
   31.3050   36.8800   30.3190 H   0  0  0  0  0  0  0  0  0  0  0  0
  1  2  1  0  0  0  0
  2  3  2  0  0  0  0
  2  5  1  0  0  0  0
  3  4  1  0  0  0  0
  3 31  1  0  0  0  0
  4  8  2  0  0  0  0
  4 32  1  0  0  0  0
  5  6  2  0  0  0  0
  5 33  1  0  0  0  0
  6  7  1  0  0  0  0
  6  8  1  0  0  0  0
  8  9  1  0  0  0  0
  9 10  1  0  0  0  0
 10 11  1  0  0  0  0
 10 17  2  0  0  0  0
 11 12  2  0  0  0  0
 11 13  1  0  0  0  0
 13 14  1  0  0  0  0
 13 15  1  0  0  0  0
 14 34  1  0  0  0  0
 14 35  1  0  0  0  0
 14 36  1  0  0  0  0
 15 16  2  0  0  0  0
 15 18  1  0  0  0  0
 16 21  1  0  0  0  0
 17 18  1  0  0  0  0
 17 37  1  0  0  0  0
 18 19  2  0  0  0  0
 19 20  1  0  0  0  0
 19 38  1  0  0  0  0
 20 21  2  0  0  0  0
 21 22  1  0  0  0  0
 22 23  1  0  0  0  0
 22 39  1  0  0  0  0
 23 24  1  0  0  0  0
 23 25  1  0  0  0  0
 23 40  1  6  0  0  0
 24 41  1  0  0  0  0
 24 42  1  0  0  0  0
 24 43  1  0  0  0  0
 25 26  1  0  0  0  0
 25 44  1  0  0  0  0
 25 45  1  0  0  0  0
 26 27  1  0  0  0  0
 26 30  1  0  0  0  0
 27 28  2  0  0  0  0
 28 29  1  0  0  0  0
 28 46  1  0  0  0  0
 29 30  2  0  0  0  0
M  END
$$$$
