p38a_2r
 OpenBabel02232411163D
Structure written by MMmdl.
 56 59  0  0  0  0  0  0  0  0999 V2000
   36.3440   36.0110   15.8530 C   0  0  0  0  0  0  0  0  0  0  0  0
   34.6490   35.0200   21.4730 C   0  0  0  0  0  0  0  0  0  0  0  0
   35.6470   35.5640   16.9700 C   0  0  0  0  0  0  0  0  0  0  0  0
   34.2060   39.1100   24.0200 C   0  0  0  0  0  0  0  0  0  0  0  0
   34.8240   37.8850   21.6260 C   0  0  0  0  0  0  0  0  0  0  0  0
   35.1790   37.2260   20.3990 C   0  0  0  0  0  0  0  0  0  0  0  0
   37.6400   36.4940   16.0770 C   0  0  0  0  0  0  0  0  0  0  0  0
   38.2510   36.5040   17.3330 C   0  0  0  0  0  0  0  0  0  0  0  0
   37.5170   36.0810   18.4470 C   0  0  0  0  0  0  0  0  0  0  0  0
   34.5280   37.1190   22.7920 C   0  0  0  0  0  0  0  0  0  0  0  0
   34.7650   39.3000   21.7510 C   0  0  0  0  0  0  0  0  0  0  0  0
   35.1250   35.8760   20.3510 C   0  0  0  0  0  0  0  0  0  0  0  0
   36.2120   35.6150   18.2610 C   0  0  0  0  0  0  0  0  0  0  0  0
   34.4250   35.0610   16.8470 F   0  0  0  0  0  0  0  0  0  0  0  0
   35.4290   35.0460   19.2720 O   0  0  0  0  0  0  0  0  0  0  0  0
   34.4610   39.9240   22.8990 N   0  0  0  0  0  0  0  0  0  0  0  0
   34.4130   33.8360   21.3940 O   0  0  0  0  0  0  0  0  0  0  0  0
   34.4860   35.7150   22.7270 N   0  0  0  0  0  0  0  0  0  0  0  0
   34.2610   37.7300   23.9950 N   0  0  0  0  0  0  0  0  0  0  0  0
   33.7910   39.7300   25.1760 N   0  0  0  0  0  0  0  0  0  0  0  0
   35.8970   36.0110   14.8560 H   0  0  0  0  0  0  0  0  0  0  0  0
   35.4960   37.8420   19.5540 H   0  0  0  0  0  0  0  0  0  0  0  0
   39.2770   36.8650   17.4530 H   0  0  0  0  0  0  0  0  0  0  0  0
   37.9610   36.1410   19.4430 H   0  0  0  0  0  0  0  0  0  0  0  0
   34.9680   39.9350   20.8720 H   0  0  0  0  0  0  0  0  0  0  0  0
   33.8710   40.7660   25.2490 H   0  0  0  0  0  0  0  0  0  0  0  0
   38.3040   37.0020   15.0410 F   0  0  0  0  0  0  0  0  0  0  0  0
   32.5970   39.1440   28.7550 C   0  0  0  0  0  0  0  0  0  0  0  0
   32.6780   39.7950   27.3690 C   0  0  0  0  0  0  0  0  0  0  0  0
   33.6620   39.0070   26.4780 C   0  0  0  0  0  0  0  0  0  0  0  0
   35.0310   38.8660   27.1780 C   0  0  0  0  0  0  0  0  0  0  0  0
   34.8360   38.2600   28.5730 C   0  0  0  0  0  0  0  0  0  0  0  0
   33.9020   39.0290   29.3660 O   0  0  0  0  0  0  0  0  0  0  0  0
   32.1320   38.1330   28.6980 H   0  0  0  0  0  0  0  0  0  0  0  0
   32.0560   39.8010   29.4750 H   0  0  0  0  0  0  0  0  0  0  0  0
   33.0240   40.8520   27.4750 H   0  0  0  0  0  0  0  0  0  0  0  0
   31.6660   39.8050   26.8980 H   0  0  0  0  0  0  0  0  0  0  0  0
   33.2430   37.9810   26.2810 H   0  0  0  0  0  0  0  0  0  0  0  0
   35.6940   38.1970   26.5780 H   0  0  0  0  0  0  0  0  0  0  0  0
   35.5200   39.8650   27.2620 H   0  0  0  0  0  0  0  0  0  0  0  0
   34.4700   37.2080   28.5020 H   0  0  0  0  0  0  0  0  0  0  0  0
   35.7700   38.3270   29.1770 H   0  0  0  0  0  0  0  0  0  0  0  0
   34.2930   34.9120   23.9690 C   0  0  0  0  0  0  0  0  0  0  0  0
   34.7710   33.9040   23.8180 H   0  0  0  0  0  0  0  0  0  0  0  0
   34.8410   35.4250   24.8110 H   0  0  0  0  0  0  0  0  0  0  0  0
   32.8010   34.6810   24.3970 C   0  0  0  0  0  0  0  0  0  0  0  0
   32.0510   35.9080   24.3430 O   0  0  0  0  0  0  0  0  0  0  0  0
   32.6080   36.6550   24.6630 H   0  0  0  0  0  0  0  0  0  0  0  0
   32.8100   34.1750   25.8500 C   0  0  0  0  0  0  0  0  0  0  0  0
   33.3440   34.8820   26.5270 H   0  0  0  0  0  0  0  0  0  0  0  0
   31.7690   34.0630   26.2300 H   0  0  0  0  0  0  0  0  0  0  0  0
   33.3150   33.1840   25.9180 H   0  0  0  0  0  0  0  0  0  0  0  0
   32.0530   33.7330   23.4590 C   0  0  0  0  0  0  0  0  0  0  0  0
   31.0280   33.5360   23.8520 H   0  0  0  0  0  0  0  0  0  0  0  0
   31.9580   34.1800   22.4470 H   0  0  0  0  0  0  0  0  0  0  0  0
   32.5950   32.7620   23.3890 H   0  0  0  0  0  0  0  0  0  0  0  0
  1  3  2  0  0  0  0
  1  7  1  0  0  0  0
  1 21  1  0  0  0  0
  2 12  1  0  0  0  0
  2 17  2  0  0  0  0
  2 18  1  0  0  0  0
  3 13  1  0  0  0  0
  3 14  1  0  0  0  0
  4 16  2  0  0  0  0
  4 19  1  0  0  0  0
  4 20  1  0  0  0  0
  5  6  1  0  0  0  0
  5 10  1  0  0  0  0
  5 11  2  0  0  0  0
  6 12  2  0  0  0  0
  6 22  1  0  0  0  0
  7  8  2  0  0  0  0
  7 27  1  0  0  0  0
  8  9  1  0  0  0  0
  8 23  1  0  0  0  0
  9 13  2  0  0  0  0
  9 24  1  0  0  0  0
 10 18  1  0  0  0  0
 10 19  2  0  0  0  0
 11 16  1  0  0  0  0
 11 25  1  0  0  0  0
 12 15  1  0  0  0  0
 13 15  1  0  0  0  0
 18 43  1  0  0  0  0
 20 26  1  0  0  0  0
 20 30  1  0  0  0  0
 28 29  1  0  0  0  0
 28 33  1  0  0  0  0
 28 34  1  0  0  0  0
 28 35  1  0  0  0  0
 29 30  1  0  0  0  0
 29 36  1  0  0  0  0
 29 37  1  0  0  0  0
 30 31  1  0  0  0  0
 30 38  1  0  0  0  0
 31 32  1  0  0  0  0
 31 39  1  0  0  0  0
 31 40  1  0  0  0  0
 32 33  1  0  0  0  0
 32 41  1  0  0  0  0
 32 42  1  0  0  0  0
 43 44  1  0  0  0  0
 43 45  1  0  0  0  0
 43 46  1  0  0  0  0
 46 47  1  0  0  0  0
 46 49  1  0  0  0  0
 46 53  1  0  0  0  0
 47 48  1  0  0  0  0
 49 50  1  0  0  0  0
 49 51  1  0  0  0  0
 49 52  1  0  0  0  0
 53 54  1  0  0  0  0
 53 55  1  0  0  0  0
 53 56  1  0  0  0  0
M  END
$$$$
