p38a_2n
 OpenBabel02232411163D
Structure written by MMmdl.
 53 56  0  0  0  0  0  0  0  0999 V2000
   38.2490   36.5100   17.2080 C   0  0  0  0  0  0  0  0  0  0  0  0
   34.3800   35.0250   21.1940 C   0  0  0  0  0  0  0  0  0  0  0  0
   37.4520   36.0570   18.2560 C   0  0  0  0  0  0  0  0  0  0  0  0
   33.8400   39.0400   23.8450 C   0  0  0  0  0  0  0  0  0  0  0  0
   34.5840   37.8920   21.4490 C   0  0  0  0  0  0  0  0  0  0  0  0
   35.0240   37.2590   20.2350 C   0  0  0  0  0  0  0  0  0  0  0  0
   37.6140   36.6780   15.9690 C   0  0  0  0  0  0  0  0  0  0  0  0
   36.2640   36.3920   15.7510 C   0  0  0  0  0  0  0  0  0  0  0  0
   35.4880   35.9260   16.8170 C   0  0  0  0  0  0  0  0  0  0  0  0
   34.0770   37.1020   22.5220 C   0  0  0  0  0  0  0  0  0  0  0  0
   34.6450   39.2970   21.6580 C   0  0  0  0  0  0  0  0  0  0  0  0
   34.9530   35.9110   20.1430 C   0  0  0  0  0  0  0  0  0  0  0  0
   36.0880   35.7460   18.0670 C   0  0  0  0  0  0  0  0  0  0  0  0
   37.9730   35.9110   19.4660 F   0  0  0  0  0  0  0  0  0  0  0  0
   35.3570   35.1090   19.0780 O   0  0  0  0  0  0  0  0  0  0  0  0
   34.2970   39.8850   22.8130 N   0  0  0  0  0  0  0  0  0  0  0  0
   34.2630   33.8220   21.1070 O   0  0  0  0  0  0  0  0  0  0  0  0
   33.9650   35.7050   22.3930 N   0  0  0  0  0  0  0  0  0  0  0  0
   33.7080   37.6700   23.7130 N   0  0  0  0  0  0  0  0  0  0  0  0
   33.4840   39.6100   25.0430 N   0  0  0  0  0  0  0  0  0  0  0  0
   39.3040   36.7610   17.3510 H   0  0  0  0  0  0  0  0  0  0  0  0
   35.4110   37.8920   19.4330 H   0  0  0  0  0  0  0  0  0  0  0  0
   35.8040   36.5430   14.7720 H   0  0  0  0  0  0  0  0  0  0  0  0
   34.4230   35.7190   16.6680 H   0  0  0  0  0  0  0  0  0  0  0  0
   34.9900   39.9560   20.8440 H   0  0  0  0  0  0  0  0  0  0  0  0
   33.6100   40.6270   25.1940 H   0  0  0  0  0  0  0  0  0  0  0  0
   38.3270   37.1710   14.9600 F   0  0  0  0  0  0  0  0  0  0  0  0
   33.0620   40.4760   28.1300 C   0  0  0  0  0  0  0  0  0  0  0  0
   32.1880   39.6770   27.1560 C   0  0  0  0  0  0  0  0  0  0  0  0
   32.9950   38.7820   26.1940 C   0  0  0  0  0  0  0  0  0  0  0  0
   34.1510   38.0650   26.9230 C   0  0  0  0  0  0  0  0  0  0  0  0
   34.9390   39.0050   27.8340 C   0  0  0  0  0  0  0  0  0  0  0  0
   34.0620   39.6630   28.7780 O   0  0  0  0  0  0  0  0  0  0  0  0
   32.4610   40.8490   28.9910 H   0  0  0  0  0  0  0  0  0  0  0  0
   33.5760   41.3110   27.6040 H   0  0  0  0  0  0  0  0  0  0  0  0
   31.5660   40.3910   26.5620 H   0  0  0  0  0  0  0  0  0  0  0  0
   31.4950   39.0130   27.7300 H   0  0  0  0  0  0  0  0  0  0  0  0
   32.2990   37.9960   25.7740 H   0  0  0  0  0  0  0  0  0  0  0  0
   33.7010   37.2360   27.5280 H   0  0  0  0  0  0  0  0  0  0  0  0
   34.8420   37.5940   26.1820 H   0  0  0  0  0  0  0  0  0  0  0  0
   35.6270   38.4410   28.5060 H   0  0  0  0  0  0  0  0  0  0  0  0
   35.4800   39.7790   27.2440 H   0  0  0  0  0  0  0  0  0  0  0  0
   33.3300   34.9080   23.4980 C   0  0  0  0  0  0  0  0  0  0  0  0
   33.7470   33.8660   23.4630 H   0  0  0  0  0  0  0  0  0  0  0  0
   33.6000   35.3740   24.4880 H   0  0  0  0  0  0  0  0  0  0  0  0
   31.8000   34.8780   23.3440 C   0  0  0  0  0  0  0  0  0  0  0  0
   31.4100   35.9240   23.3040 H   0  0  0  0  0  0  0  0  0  0  0  0
   31.5160   34.3560   22.4000 H   0  0  0  0  0  0  0  0  0  0  0  0
   31.1350   34.1530   24.5260 C   0  0  0  0  0  0  0  0  0  0  0  0
   31.7550   33.3080   24.9060 H   0  0  0  0  0  0  0  0  0  0  0  0
   30.8910   34.8680   25.3470 H   0  0  0  0  0  0  0  0  0  0  0  0
   29.9280   33.4960   24.1020 O   0  0  0  0  0  0  0  0  0  0  0  0
   29.2500   34.1850   23.8270 H   0  0  0  0  0  0  0  0  0  0  0  0
  1  3  2  0  0  0  0
  1  7  1  0  0  0  0
  1 21  1  0  0  0  0
  2 12  1  0  0  0  0
  2 17  2  0  0  0  0
  2 18  1  0  0  0  0
  3 13  1  0  0  0  0
  3 14  1  0  0  0  0
  4 16  2  0  0  0  0
  4 19  1  0  0  0  0
  4 20  1  0  0  0  0
  5  6  1  0  0  0  0
  5 10  1  0  0  0  0
  5 11  2  0  0  0  0
  6 12  2  0  0  0  0
  6 22  1  0  0  0  0
  7  8  2  0  0  0  0
  7 27  1  0  0  0  0
  8  9  1  0  0  0  0
  8 23  1  0  0  0  0
  9 13  2  0  0  0  0
  9 24  1  0  0  0  0
 10 18  1  0  0  0  0
 10 19  2  0  0  0  0
 11 16  1  0  0  0  0
 11 25  1  0  0  0  0
 12 15  1  0  0  0  0
 13 15  1  0  0  0  0
 18 43  1  0  0  0  0
 20 26  1  0  0  0  0
 20 30  1  0  0  0  0
 28 29  1  0  0  0  0
 28 33  1  0  0  0  0
 28 34  1  0  0  0  0
 28 35  1  0  0  0  0
 29 30  1  0  0  0  0
 29 36  1  0  0  0  0
 29 37  1  0  0  0  0
 30 31  1  0  0  0  0
 30 38  1  0  0  0  0
 31 32  1  0  0  0  0
 31 39  1  0  0  0  0
 31 40  1  0  0  0  0
 32 33  1  0  0  0  0
 32 41  1  0  0  0  0
 32 42  1  0  0  0  0
 43 44  1  0  0  0  0
 43 45  1  0  0  0  0
 43 46  1  0  0  0  0
 46 47  1  0  0  0  0
 46 48  1  0  0  0  0
 46 49  1  0  0  0  0
 49 50  1  0  0  0  0
 49 51  1  0  0  0  0
 49 52  1  0  0  0  0
 52 53  1  0  0  0  0
M  END
$$$$
