22
 OpenBabel02232411153D
Structure written by MMmdl.
 49 52  0  0  0  0  0  0  0  0999 V2000
    2.0050   28.8960    6.6930 C   0  0  0  0  0  0  0  0  0  0  0  0
   -1.4810   31.4720    7.8980 C   0  0  0  0  0  0  0  0  0  0  0  0
    0.1050   26.0700    8.9550 C   0  0  0  0  0  0  0  0  0  0  0  0
   -0.7820   25.3790    9.9980 C   0  0  0  0  0  0  0  0  0  0  0  0
   -0.7050   23.8530    9.7730 C   0  0  0  0  0  0  0  0  0  0  0  0
   -1.5070   23.0970   10.8410 C   0  0  0  0  0  0  0  0  0  0  0  0
   -1.0590   23.4770   12.2620 C   0  0  0  0  0  0  0  0  0  0  0  0
   -1.1470   24.9950   12.4860 C   0  0  0  0  0  0  0  0  0  0  0  0
   -0.3430   25.7600   11.4240 C   0  0  0  0  0  0  0  0  0  0  0  0
    5.6170   25.8610    5.2310 C   0  0  0  0  0  0  0  0  0  0  0  0
    5.5350   24.9890    6.3200 C   0  0  0  0  0  0  0  0  0  0  0  0
    4.6740   25.3110    7.3710 C   0  0  0  0  0  0  0  0  0  0  0  0
    3.8760   26.4560    7.3650 C   0  0  0  0  0  0  0  0  0  0  0  0
    1.3180   27.9420    7.4410 N   0  0  0  0  0  0  0  0  0  0  0  0
    0.1200   28.2690    7.9910 C   0  0  0  0  0  0  0  0  0  0  0  0
   -0.5540   27.3800    8.7360 O   0  0  0  0  0  0  0  0  0  0  0  0
   -0.4260   29.5660    7.8090 C   0  0  0  0  0  0  0  0  0  0  0  0
   -1.5770   30.2000    8.2910 N   0  0  0  0  0  0  0  0  0  0  0  0
   -0.2710   31.7240    7.1580 N   0  0  0  0  0  0  0  0  0  0  0  0
    0.3980   30.5070    7.0680 C   0  0  0  0  0  0  0  0  0  0  0  0
    1.5910   30.2010    6.4650 N   0  0  0  0  0  0  0  0  0  0  0  0
    3.2080   28.5260    6.1090 N   0  0  0  0  0  0  0  0  0  0  0  0
    3.9410   27.3040    6.2480 C   0  0  0  0  0  0  0  0  0  0  0  0
    4.8320   27.0090    5.1900 C   0  0  0  0  0  0  0  0  0  0  0  0
   -2.1880   32.2700    8.1020 H   0  0  0  0  0  0  0  0  0  0  0  0
    1.1320   26.2560    9.3380 H   0  0  0  0  0  0  0  0  0  0  0  0
    0.1080   25.5480    7.9770 H   0  0  0  0  0  0  0  0  0  0  0  0
   -1.8400   25.7110    9.8620 H   0  0  0  0  0  0  0  0  0  0  0  0
   -1.1070   23.6030    8.7670 H   0  0  0  0  0  0  0  0  0  0  0  0
    0.3600   23.5230    9.8320 H   0  0  0  0  0  0  0  0  0  0  0  0
   -2.5830   23.3470   10.7260 H   0  0  0  0  0  0  0  0  0  0  0  0
   -1.3700   22.0000   10.7030 H   0  0  0  0  0  0  0  0  0  0  0  0
   -1.7040   22.9540   13.0040 H   0  0  0  0  0  0  0  0  0  0  0  0
   -0.0040   23.1480   12.4130 H   0  0  0  0  0  0  0  0  0  0  0  0
   -2.2140   25.3120   12.4600 H   0  0  0  0  0  0  0  0  0  0  0  0
   -0.7330   25.2400   13.4920 H   0  0  0  0  0  0  0  0  0  0  0  0
    0.7390   25.5170   11.5610 H   0  0  0  0  0  0  0  0  0  0  0  0
   -0.4810   26.8540   11.5770 H   0  0  0  0  0  0  0  0  0  0  0  0
    6.3000   25.6420    4.4040 H   0  0  0  0  0  0  0  0  0  0  0  0
    6.1390   24.0780    6.3230 H   0  0  0  0  0  0  0  0  0  0  0  0
    3.2180   26.6840    8.2070 H   0  0  0  0  0  0  0  0  0  0  0  0
   -0.0220   32.6140    6.7040 H   0  0  0  0  0  0  0  0  0  0  0  0
    3.6750   29.2260    5.4760 H   0  0  0  0  0  0  0  0  0  0  0  0
    4.9220   27.6820    4.3390 H   0  0  0  0  0  0  0  0  0  0  0  0
    4.7370   24.2130    8.7430 S   0  0  0  0  0  0  0  0  0  0  0  0
    3.0300   24.0920    9.3160 C   0  0  0  0  0  0  0  0  0  0  0  0
    2.9570   23.1320    9.8860 H   0  0  0  0  0  0  0  0  0  0  0  0
    2.7980   24.9190   10.0260 H   0  0  0  0  0  0  0  0  0  0  0  0
    2.3100   24.0750    8.4790 H   0  0  0  0  0  0  0  0  0  0  0  0
  1 14  2  0  0  0  0
  1 21  1  0  0  0  0
  1 22  1  0  0  0  0
  2 18  2  0  0  0  0
  2 19  1  0  0  0  0
  2 25  1  0  0  0  0
  3  4  1  0  0  0  0
  3 16  1  0  0  0  0
  3 26  1  0  0  0  0
  3 27  1  0  0  0  0
  4  5  1  0  0  0  0
  4  9  1  0  0  0  0
  4 28  1  0  0  0  0
  5  6  1  0  0  0  0
  5 29  1  0  0  0  0
  5 30  1  0  0  0  0
  6  7  1  0  0  0  0
  6 31  1  0  0  0  0
  6 32  1  0  0  0  0
  7  8  1  0  0  0  0
  7 33  1  0  0  0  0
  7 34  1  0  0  0  0
  8  9  1  0  0  0  0
  8 35  1  0  0  0  0
  8 36  1  0  0  0  0
  9 37  1  0  0  0  0
  9 38  1  0  0  0  0
 10 11  2  0  0  0  0
 10 24  1  0  0  0  0
 10 39  1  0  0  0  0
 11 12  1  0  0  0  0
 11 40  1  0  0  0  0
 12 13  2  0  0  0  0
 12 45  1  0  0  0  0
 13 23  1  0  0  0  0
 13 41  1  0  0  0  0
 14 15  1  0  0  0  0
 15 16  1  0  0  0  0
 15 17  2  0  0  0  0
 17 18  1  0  0  0  0
 17 20  1  0  0  0  0
 19 20  1  0  0  0  0
 19 42  1  0  0  0  0
 20 21  2  0  0  0  0
 22 23  1  0  0  0  0
 22 43  1  0  0  0  0
 23 24  2  0  0  0  0
 24 44  1  0  0  0  0
 45 46  1  0  0  0  0
 46 47  1  0  0  0  0
 46 48  1  0  0  0  0
 46 49  1  0  0  0  0
M  END
$$$$
