23469
                    3D
 Schrodinger Suite 2022-3.
 41 43  0  0  1  0  0  0  0  0999 V2000
   43.7050   14.2890   16.5650 S   0  0  0  0  0  0  0  0  0  0  0  0
   43.3490   15.6070   15.4760 C   0  0  0  0  0  0  0  0  0  0  0  0
   42.4380   15.1840   14.5410 C   0  0  0  0  0  0  0  0  0  0  0  0
   42.0260   13.8120   14.7250 C   0  0  0  0  0  0  0  0  0  0  0  0
   42.5890   13.1840   15.8060 C   0  0  0  0  0  0  0  0  0  0  0  0
   43.9430   16.9900   15.7530 C   0  0  0  0  0  0  0  0  0  0  0  0
   44.0550   17.2590   16.9670 O   0  0  0  0  0  0  0  0  0  0  0  0
   44.2670   17.7310   14.8240 O   0  5  0  0  0  0  0  0  0  0  0  0
   42.3320   11.8480   16.3000 C   0  0  0  0  0  0  0  0  0  0  0  0
   41.0330   11.3200   16.1930 C   0  0  0  0  0  0  0  0  0  0  0  0
   40.7970    9.9610   16.4590 C   0  0  0  0  0  0  0  0  0  0  0  0
   41.8100    9.1500   16.9830 C   0  0  0  0  0  0  0  0  0  0  0  0
   43.0720    9.7160   17.2000 C   0  0  0  0  0  0  0  0  0  0  0  0
   43.3490   11.0340   16.8430 C   0  0  0  0  0  0  0  0  0  0  0  0
   40.8270   12.9430   13.5210 Br  0  0  0  0  0  0  0  0  0  0  0  0
   42.0510   15.9780   13.5130 O   0  0  0  0  0  0  0  0  0  0  0  0
   40.6060   16.2020   13.4200 C   0  0  0  0  0  0  0  0  0  0  0  0
   40.5650   17.6700   12.8880 C   0  0  0  0  0  0  0  0  0  0  0  0
   39.4330   18.0760   12.5410 O   0  5  0  0  0  0  0  0  0  0  0  0
   41.6330   18.2910   12.8520 O   0  0  0  0  0  0  0  0  0  0  0  0
   39.4900    9.4630   16.0950 N   0  0  0  0  0  0  0  0  0  0  0  0
   40.1930   11.9520   15.8920 H   0  0  0  0  0  0  0  0  0  0  0  0
   41.6420    8.0990   17.2150 H   0  0  0  0  0  0  0  0  0  0  0  0
   43.8560    9.0950   17.6410 H   0  0  0  0  0  0  0  0  0  0  0  0
   44.3610   11.4190   16.9800 H   0  0  0  0  0  0  0  0  0  0  0  0
   40.2000   15.4810   12.6860 H   0  0  0  0  0  0  0  0  0  0  0  0
   40.1040   16.0950   14.4030 H   0  0  0  0  0  0  0  0  0  0  0  0
   38.9880   10.0360   15.3840 H   0  0  0  0  0  0  0  0  0  0  0  0
   38.9490    8.2420   16.4900 C   0  0  0  0  0  0  0  0  0  0  0  0
   39.4440    7.5790   17.3950 O   0  0  0  0  0  0  0  0  0  0  0  0
   35.4880    6.6340   14.4890 C   0  0  0  0  0  0  0  0  0  0  0  0
   35.7910    6.2750   15.8050 C   0  0  0  0  0  0  0  0  0  0  0  0
   36.8940    6.8390   16.4500 C   0  0  0  0  0  0  0  0  0  0  0  0
   37.7110    7.7630   15.7770 C   0  0  0  0  0  0  0  0  0  0  0  0
   37.3960    8.1320   14.4620 C   0  0  0  0  0  0  0  0  0  0  0  0
   36.2840    7.5710   13.8250 C   0  0  0  0  0  0  0  0  0  0  0  0
   34.6350    6.1770   13.9840 H   0  0  0  0  0  0  0  0  0  0  0  0
   35.1660    5.5430   16.3250 H   0  0  0  0  0  0  0  0  0  0  0  0
   37.1170    6.5420   17.4820 H   0  0  0  0  0  0  0  0  0  0  0  0
   38.0080    8.8490   13.9030 H   0  0  0  0  0  0  0  0  0  0  0  0
   36.0420    7.8610   12.8020 H   0  0  0  0  0  0  0  0  0  0  0  0
  1  2  1  0  0  0  0
  1  5  1  0  0  0  0
  2  3  2  0  0  0  0
  2  6  1  0  0  0  0
  3  4  1  0  0  0  0
  3 16  1  0  0  0  0
  4  5  2  0  0  0  0
  4 15  1  0  0  0  0
  5  9  1  0  0  0  0
  6  7  2  0  0  0  0
  6  8  1  0  0  0  0
  9 10  1  0  0  0  0
  9 14  2  0  0  0  0
 10 11  2  0  0  0  0
 10 22  1  0  0  0  0
 11 12  1  0  0  0  0
 11 21  1  0  0  0  0
 12 13  2  0  0  0  0
 12 23  1  0  0  0  0
 13 14  1  0  0  0  0
 13 24  1  0  0  0  0
 14 25  1  0  0  0  0
 16 17  1  0  0  0  0
 17 18  1  0  0  0  0
 17 26  1  0  0  0  0
 17 27  1  0  0  0  0
 18 19  1  0  0  0  0
 18 20  2  0  0  0  0
 21 28  1  0  0  0  0
 21 29  1  0  0  0  0
 29 30  2  0  0  0  0
 29 34  1  0  0  0  0
 31 32  2  0  0  0  0
 31 36  1  0  0  0  0
 31 37  1  0  0  0  0
 32 33  1  0  0  0  0
 32 38  1  0  0  0  0
 33 34  2  0  0  0  0
 33 39  1  0  0  0  0
 34 35  1  0  0  0  0
 35 36  2  0  0  0  0
 35 40  1  0  0  0  0
 36 41  1  0  0  0  0
M  CHG  2   8  -1  19  -1
M  END
$$$$
