45
 OpenBabel02232411163D
Structure written by MMmdl.
 48 51  0  0  0  0  0  0  0  0999 V2000
    3.5520  -49.7800    5.8300 O   0  0  0  0  0  0  0  0  0  0  0  0
    2.8260  -48.9490    6.4130 C   0  0  0  0  0  0  0  0  0  0  0  0
    3.2030  -47.9400    7.0230 O   0  5  0  0  0  0  0  0  0  0  0  0
    1.3220  -49.2890    6.3740 C   0  0  0  0  0  0  0  0  0  0  0  0
   -0.4580  -50.7230    6.5640 C   0  0  0  0  0  0  0  0  0  0  0  0
   -1.3120  -51.8170    6.7840 C   0  0  0  0  0  0  0  0  0  0  0  0
   -2.6630  -51.6350    6.5250 C   0  0  0  0  0  0  0  0  0  0  0  0
   -3.1600  -50.3940    6.0600 C   0  0  0  0  0  0  0  0  0  0  0  0
   -2.3220  -49.3080    5.8490 C   0  0  0  0  0  0  0  0  0  0  0  0
   -0.9470  -49.4500    6.0990 C   0  0  0  0  0  0  0  0  0  0  0  0
    0.1950  -48.5640    6.0000 C   0  0  0  0  0  0  0  0  0  0  0  0
    0.0850  -47.1520    5.5470 C   0  0  0  0  0  0  0  0  0  0  0  0
    0.0420  -46.1310    6.6980 C   0  0  0  0  0  0  0  0  0  0  0  0
   -1.1500  -46.2630    7.6400 C   0  0  0  0  0  0  0  0  0  0  0  0
   -2.3110  -45.6640    6.9510 O   0  0  0  0  0  0  0  0  0  0  0  0
   -3.5160  -45.7060    7.6070 C   0  0  0  0  0  0  0  0  0  0  0  0
   -6.0670  -45.7030    8.7370 C   0  0  0  0  0  0  0  0  0  0  0  0
   -5.0150  -46.3350    9.3890 C   0  0  0  0  0  0  0  0  0  0  0  0
   -3.7330  -46.3550    8.8300 C   0  0  0  0  0  0  0  0  0  0  0  0
   -0.9360  -52.7740    7.1440 H   0  0  0  0  0  0  0  0  0  0  0  0
   -3.3640  -52.4550    6.6830 H   0  0  0  0  0  0  0  0  0  0  0  0
   -4.2300  -50.3000    5.8670 H   0  0  0  0  0  0  0  0  0  0  0  0
   -2.7330  -48.3600    5.4990 H   0  0  0  0  0  0  0  0  0  0  0  0
   -0.8560  -47.0410    4.9480 H   0  0  0  0  0  0  0  0  0  0  0  0
    0.9520  -46.8890    4.8940 H   0  0  0  0  0  0  0  0  0  0  0  0
    0.0350  -45.1060    6.2640 H   0  0  0  0  0  0  0  0  0  0  0  0
    0.9620  -46.2570    7.3240 H   0  0  0  0  0  0  0  0  0  0  0  0
   -1.0010  -45.6510    8.5560 H   0  0  0  0  0  0  0  0  0  0  0  0
   -1.4050  -47.3230    7.8470 H   0  0  0  0  0  0  0  0  0  0  0  0
   -2.9450  -46.8750    9.3630 H   0  0  0  0  0  0  0  0  0  0  0  0
   -5.8580  -45.0870    7.4860 C   0  0  0  0  0  0  0  0  0  0  0  0
   -4.5750  -45.0340    6.9310 C   0  0  0  0  0  0  0  0  0  0  0  0
   -4.2910  -44.3430    5.6280 C   0  0  0  0  0  0  0  0  0  0  0  0
   -5.4960  -43.5880    5.0450 C   0  0  0  0  0  0  0  0  0  0  0  0
   -6.8040  -44.3550    5.2580 C   0  0  0  0  0  0  0  0  0  0  0  0
   -7.0590  -44.5350    6.7620 C   0  0  0  0  0  0  0  0  0  0  0  0
   -5.1990  -46.8360   10.3400 H   0  0  0  0  0  0  0  0  0  0  0  0
   -7.0610  -45.6970    9.1760 H   0  0  0  0  0  0  0  0  0  0  0  0
   -3.9450  -45.1050    4.8880 H   0  0  0  0  0  0  0  0  0  0  0  0
   -3.4710  -43.6040    5.7780 H   0  0  0  0  0  0  0  0  0  0  0  0
   -5.3150  -43.4160    3.9630 H   0  0  0  0  0  0  0  0  0  0  0  0
   -5.5870  -42.6030    5.5520 H   0  0  0  0  0  0  0  0  0  0  0  0
   -6.7440  -45.3530    4.7670 H   0  0  0  0  0  0  0  0  0  0  0  0
   -7.6550  -43.8010    4.8050 H   0  0  0  0  0  0  0  0  0  0  0  0
   -7.3350  -43.5530    7.2140 H   0  0  0  0  0  0  0  0  0  0  0  0
   -7.9230  -45.2330    6.8970 H   0  0  0  0  0  0  0  0  0  0  0  0
    0.9300  -50.5970    6.7320 N   0  0  0  0  0  0  0  0  0  0  0  0
    1.5270  -51.3590    7.0300 H   0  0  0  0  0  0  0  0  0  0  0  0
  1  2  2  0  0  0  0
  2  3  1  0  0  0  0
  2  4  1  0  0  0  0
  4 11  2  0  0  0  0
  4 47  1  0  0  0  0
  5  6  2  0  0  0  0
  5 10  1  0  0  0  0
  5 47  1  0  0  0  0
  6  7  1  0  0  0  0
  6 20  1  0  0  0  0
  7  8  2  0  0  0  0
  7 21  1  0  0  0  0
  8  9  1  0  0  0  0
  8 22  1  0  0  0  0
  9 10  2  0  0  0  0
  9 23  1  0  0  0  0
 10 11  1  0  0  0  0
 11 12  1  0  0  0  0
 12 24  1  0  0  0  0
 12 25  1  0  0  0  0
 12 13  1  0  0  0  0
 13 14  1  0  0  0  0
 13 26  1  0  0  0  0
 13 27  1  0  0  0  0
 14 15  1  0  0  0  0
 14 28  1  0  0  0  0
 14 29  1  0  0  0  0
 15 16  1  0  0  0  0
 16 19  2  0  0  0  0
 16 32  1  0  0  0  0
 17 18  2  0  0  0  0
 17 31  1  0  0  0  0
 17 38  1  0  0  0  0
 18 19  1  0  0  0  0
 18 37  1  0  0  0  0
 19 30  1  0  0  0  0
 31 32  2  0  0  0  0
 31 36  1  0  0  0  0
 32 33  1  0  0  0  0
 33 34  1  0  0  0  0
 33 39  1  0  0  0  0
 33 40  1  0  0  0  0
 34 35  1  0  0  0  0
 34 41  1  0  0  0  0
 34 42  1  0  0  0  0
 35 36  1  0  0  0  0
 35 43  1  0  0  0  0
 35 44  1  0  0  0  0
 36 45  1  0  0  0  0
 36 46  1  0  0  0  0
 47 48  1  0  0  0  0
M  CHG  1   3  -1
M  END
$$$$
