18659-1 flip
                    3D
 Schrodinger Suite 2022-3.
 50 51  0  0  1  0  0  0  0  0999 V2000
   25.3170    2.8400   31.6090 C   0  0  0  0  0  0  0  0  0  0  0  0
   23.9860    3.0560   31.2180 C   0  0  0  0  0  0  0  0  0  0  0  0
   23.6210    4.1540   30.4040 C   0  0  0  0  0  0  0  0  0  0  0  0
   24.6290    5.0230   29.9630 C   0  0  0  0  0  0  0  0  0  0  0  0
   25.9520    4.8090   30.3680 C   0  0  0  0  0  0  0  0  0  0  0  0
   26.3060    3.7230   31.1930 C   0  0  0  0  0  0  0  0  0  0  0  0
   22.1880    4.3370   29.9950 C   0  0  0  0  0  0  0  0  0  0  0  0
   21.3880    5.2700   30.8920 C   0  0  0  0  0  0  0  0  0  0  0  0
   21.8850    6.6020   30.8960 N   0  0  0  0  0  0  0  0  0  0  0  0
   21.2980    7.7470   31.4770 C   0  0  0  0  0  0  0  0  0  0  0  0
   20.3830    4.9480   31.4850 O   0  0  0  0  0  0  0  0  0  0  0  0
   21.9860    8.9020   31.1230 N   0  0  0  0  0  0  0  0  0  0  0  0
   21.5100   10.0790   31.5840 C   0  0  0  0  0  0  0  0  0  0  0  0
   20.3550   10.2180   32.4110 C   0  0  0  0  0  0  0  0  0  0  0  0
   19.6670    9.0110   32.7570 C   0  0  0  0  0  0  0  0  0  0  0  0
   20.1650    7.7660   32.2840 C   0  0  0  0  0  0  0  0  0  0  0  0
   27.0460    5.5660   29.9950 O   0  0  0  0  0  0  0  0  0  0  0  0
   26.8000    6.8590   29.3880 C   0  0  0  0  0  0  0  0  0  0  0  0
   22.9160    2.2560   31.5730 O   0  0  0  0  0  0  0  0  0  0  0  0
   23.2160    1.0010   32.2370 C   0  0  0  0  0  0  0  0  0  0  0  0
   18.5220    9.0450   33.5110 N   0  0  0  0  0  0  0  0  0  0  0  0
   19.9440   11.5110   32.7970 C   0  0  0  0  0  0  0  0  0  0  0  0
   22.1150   11.2370   31.2310 O   0  0  0  0  0  0  0  0  0  0  0  0
   23.2330   11.1940   30.2630 C   0  0  0  0  0  0  0  0  0  0  0  0
   23.9060   12.5660   30.3970 C   0  0  0  0  0  0  0  0  0  0  0  0
   19.6550   12.6000   33.0750 N   0  0  0  0  0  0  0  0  0  0  0  0
   25.5980    1.9880   32.2340 H   0  0  0  0  0  0  0  0  0  0  0  0
   24.3860    5.8470   29.2920 H   0  0  0  0  0  0  0  0  0  0  0  0
   19.6420    6.8450   32.5470 H   0  0  0  0  0  0  0  0  0  0  0  0
   21.6840    3.3260   30.0180 H   0  0  0  0  0  0  0  0  0  0  0  0
   22.1360    4.7390   28.9500 H   0  0  0  0  0  0  0  0  0  0  0  0
   22.7610    6.7960   30.3710 H   0  0  0  0  0  0  0  0  0  0  0  0
   26.1450    7.4780   30.0390 H   0  0  0  0  0  0  0  0  0  0  0  0
   27.8290    7.2880   29.3420 H   0  0  0  0  0  0  0  0  0  0  0  0
   26.3800    6.7250   28.3690 H   0  0  0  0  0  0  0  0  0  0  0  0
   22.1920    0.5920   32.3920 H   0  0  0  0  0  0  0  0  0  0  0  0
   23.8230    0.3570   31.5650 H   0  0  0  0  0  0  0  0  0  0  0  0
   23.7210    1.1870   33.2080 H   0  0  0  0  0  0  0  0  0  0  0  0
   18.0400    8.1730   33.8000 H   0  0  0  0  0  0  0  0  0  0  0  0
   18.1250    9.9300   33.8270 H   0  0  0  0  0  0  0  0  0  0  0  0
   22.7790   11.0300   29.2610 H   0  0  0  0  0  0  0  0  0  0  0  0
   23.9380   10.3750   30.5400 H   0  0  0  0  0  0  0  0  0  0  0  0
   23.1980   13.6210   29.7300 O   0  0  0  0  0  0  0  0  0  0  0  0
   24.0640   12.8260   31.4670 H   0  0  0  0  0  0  0  0  0  0  0  0
   24.8740   12.5440   29.8310 H   0  0  0  0  0  0  0  0  0  0  0  0
   21.9670   14.0260   30.3760 C   0  0  0  0  0  0  0  0  0  0  0  0
   22.1880   14.4000   31.3970 H   0  0  0  0  0  0  0  0  0  0  0  0
   21.6170   14.8390   29.7030 H   0  0  0  0  0  0  0  0  0  0  0  0
   21.2680   13.1620   30.3920 H   0  0  0  0  0  0  0  0  0  0  0  0
   27.3470    3.5710   31.4960 H   0  0  0  0  0  0  0  0  0  0  0  0
  1  2  1  0  0  0  0
  1  6  2  0  0  0  0
  1 27  1  0  0  0  0
  2  3  2  0  0  0  0
  2 19  1  0  0  0  0
  3  4  1  0  0  0  0
  3  7  1  0  0  0  0
  4  5  2  0  0  0  0
  4 28  1  0  0  0  0
  5  6  1  0  0  0  0
  5 17  1  0  0  0  0
  6 50  1  0  0  0  0
  7  8  1  0  0  0  0
  7 30  1  0  0  0  0
  7 31  1  0  0  0  0
  8  9  1  0  0  0  0
  8 11  2  0  0  0  0
  9 10  1  0  0  0  0
  9 32  1  0  0  0  0
 10 12  1  0  0  0  0
 10 16  2  0  0  0  0
 12 13  2  0  0  0  0
 13 14  1  0  0  0  0
 13 23  1  0  0  0  0
 14 15  2  0  0  0  0
 14 22  1  0  0  0  0
 15 16  1  0  0  0  0
 15 21  1  0  0  0  0
 16 29  1  0  0  0  0
 17 18  1  0  0  0  0
 18 33  1  0  0  0  0
 18 34  1  0  0  0  0
 18 35  1  0  0  0  0
 19 20  1  0  0  0  0
 20 36  1  0  0  0  0
 20 37  1  0  0  0  0
 20 38  1  0  0  0  0
 21 39  1  0  0  0  0
 21 40  1  0  0  0  0
 22 26  3  0  0  0  0
 23 24  1  0  0  0  0
 24 25  1  0  0  0  0
 24 41  1  0  0  0  0
 24 42  1  0  0  0  0
 25 43  1  0  0  0  0
 25 44  1  0  0  0  0
 25 45  1  0  0  0  0
 43 46  1  0  0  0  0
 46 47  1  0  0  0  0
 46 48  1  0  0  0  0
 46 49  1  0  0  0  0
M  END
$$$$
