1c
 OpenBabel02232411173D

 52 54  0  0  1  0  0  0  0  0999 V2000
   17.9910  -13.0420   21.5570 N   0  0  0  0  0  0  0  0  0  0  0  0
   17.6840  -11.7030   20.9650 C   0  0  2  0  0  0  0  0  0  0  0  0
   17.1220  -13.6320   22.4340 C   0  0  0  0  0  0  0  0  0  0  0  0
   16.0990  -13.0500   22.7930 O   0  0  0  0  0  0  0  0  0  0  0  0
   16.2550  -11.6870   20.3560 C   0  0  0  0  0  0  0  0  0  0  0  0
   15.7950  -12.6100   19.7000 O   0  0  0  0  0  0  0  0  0  0  0  0
   18.7650  -11.4720   19.8930 C   0  0  0  0  0  0  0  0  0  0  0  0
   17.4480  -15.0500   22.9750 C   0  0  2  0  0  0  0  0  0  0  0  0
   15.5640  -10.5030   20.5560 N   0  0  0  0  0  0  0  0  0  0  0  0
   19.8510  -12.5450   20.0950 C   0  0  0  0  0  0  0  0  0  0  0  0
   16.1430  -15.8680   22.9330 N   0  3  0  0  0  0  0  0  0  0  0  0
   17.9620  -15.0090   24.4270 C   0  0  0  0  0  0  0  0  0  0  0  0
   14.1330  -10.3400   20.1980 C   0  0  0  0  0  0  0  0  0  0  0  0
   19.2430  -13.6360   20.9960 C   0  0  0  0  0  0  0  0  0  0  0  0
   19.4080  -14.5840   24.5300 C   0  0  0  0  0  0  0  0  0  0  0  0
   13.2310  -10.3140   21.4100 C   0  0  0  0  0  0  0  0  0  0  0  0
   19.7540  -13.4380   25.2550 C   0  0  0  0  0  0  0  0  0  0  0  0
   12.2770  -11.3170   21.6200 C   0  0  0  0  0  0  0  0  0  0  0  0
   21.0930  -13.0530   25.3780 C   0  0  0  0  0  0  0  0  0  0  0  0
   11.3910  -11.2250   22.6990 C   0  0  0  0  0  0  0  0  0  0  0  0
   22.1010  -13.8340   24.8090 C   0  0  0  0  0  0  0  0  0  0  0  0
   11.4550  -10.1430   23.5830 C   0  0  0  0  0  0  0  0  0  0  0  0
   21.7610  -14.9980   24.1070 C   0  0  0  0  0  0  0  0  0  0  0  0
   12.4340   -9.1670   23.3810 C   0  0  0  0  0  0  0  0  0  0  0  0
   20.4230  -15.3690   23.9600 C   0  0  0  0  0  0  0  0  0  0  0  0
   13.3180   -9.2360   22.3060 C   0  0  0  0  0  0  0  0  0  0  0  0
   17.7790  -10.9300   21.7760 H   0  0  0  0  0  0  0  0  0  0  0  0
   18.3380  -11.5510   18.8660 H   0  0  0  0  0  0  0  0  0  0  0  0
   19.1910  -10.4570   20.0390 H   0  0  0  0  0  0  0  0  0  0  0  0
   18.1860  -15.6080   22.3280 H   0  0  0  0  0  0  0  0  0  0  0  0
   15.9890   -9.7540   21.1320 H   0  0  0  0  0  0  0  0  0  0  0  0
   20.1640  -12.9890   19.1190 H   0  0  0  0  0  0  0  0  0  0  0  0
   20.7510  -12.1050   20.5850 H   0  0  0  0  0  0  0  0  0  0  0  0
   16.3120  -16.8210   23.3720 H   0  0  0  0  0  0  0  0  0  0  0  0
   15.3670  -15.3540   23.4650 H   0  0  0  0  0  0  0  0  0  0  0  0
   15.8410  -16.0270   21.9310 H   0  0  0  0  0  0  0  0  0  0  0  0
   17.3100  -14.3360   25.0390 H   0  0  0  0  0  0  0  0  0  0  0  0
   17.8950  -16.0460   24.8650 H   0  0  0  0  0  0  0  0  0  0  0  0
   14.0340   -9.3560   19.6570 H   0  0  0  0  0  0  0  0  0  0  0  0
   13.8340  -11.1640   19.4910 H   0  0  0  0  0  0  0  0  0  0  0  0
   19.9400  -13.9040   21.8310 H   0  0  0  0  0  0  0  0  0  0  0  0
   18.9980  -14.5520   20.3990 H   0  0  0  0  0  0  0  0  0  0  0  0
   18.9800  -12.8560   25.7480 H   0  0  0  0  0  0  0  0  0  0  0  0
   12.2120  -12.1760   20.9460 H   0  0  0  0  0  0  0  0  0  0  0  0
   21.3280  -12.1370   25.9270 H   0  0  0  0  0  0  0  0  0  0  0  0
   10.6370  -12.0050   22.8520 H   0  0  0  0  0  0  0  0  0  0  0  0
   23.1520  -13.5520   24.9170 H   0  0  0  0  0  0  0  0  0  0  0  0
   22.5380  -15.6330   23.6700 H   0  0  0  0  0  0  0  0  0  0  0  0
   12.5970   -7.7240   24.6190 Br  0  0  0  0  0  0  0  0  0  0  0  0
   20.1680  -16.2800   23.4130 H   0  0  0  0  0  0  0  0  0  0  0  0
   14.0750   -8.4660   22.1490 H   0  0  0  0  0  0  0  0  0  0  0  0
   10.7370  -10.0770   24.4090 H   0  0  0  0  0  0  0  0  0  0  0  0
  1  2  1  0  0  0  0
  1 14  1  0  0  0  0
  1  3  1  0  0  0  0
  2  5  1  0  0  0  0
  2  7  1  0  0  0  0
  2 27  1  1  0  0  0
  3  8  1  0  0  0  0
  3  4  2  0  0  0  0
  5  6  2  0  0  0  0
  5  9  1  0  0  0  0
  7 10  1  0  0  0  0
  7 28  1  0  0  0  0
  7 29  1  0  0  0  0
  8 11  1  0  0  0  0
  8 12  1  0  0  0  0
  8 30  1  6  0  0  0
  9 13  1  0  0  0  0
  9 31  1  0  0  0  0
 10 14  1  0  0  0  0
 10 32  1  0  0  0  0
 10 33  1  0  0  0  0
 11 34  1  0  0  0  0
 11 35  1  0  0  0  0
 11 36  1  0  0  0  0
 12 15  1  0  0  0  0
 12 37  1  0  0  0  0
 12 38  1  0  0  0  0
 13 16  1  0  0  0  0
 13 39  1  0  0  0  0
 13 40  1  0  0  0  0
 14 41  1  0  0  0  0
 14 42  1  0  0  0  0
 15 17  2  0  0  0  0
 15 25  1  0  0  0  0
 16 18  2  0  0  0  0
 16 26  1  0  0  0  0
 17 19  1  0  0  0  0
 17 43  1  0  0  0  0
 18 20  1  0  0  0  0
 18 44  1  0  0  0  0
 19 21  2  0  0  0  0
 19 45  1  0  0  0  0
 20 22  2  0  0  0  0
 20 46  1  0  0  0  0
 21 23  1  0  0  0  0
 21 47  1  0  0  0  0
 22 24  1  0  0  0  0
 22 52  1  0  0  0  0
 23 25  2  0  0  0  0
 23 48  1  0  0  0  0
 24 26  2  0  0  0  0
 24 49  1  0  0  0  0
 25 50  1  0  0  0  0
 26 51  1  0  0  0  0
M  CHG  1  11   1
M  END
$$$$
