p38a_2o
 OpenBabel02232411163D
Structure written by MMmdl.
 55 58  0  0  0  0  0  0  0  0999 V2000
   36.3550   35.9680   15.9140 C   0  0  0  0  0  0  0  0  0  0  0  0
   34.2360   35.0060   21.2800 C   0  0  0  0  0  0  0  0  0  0  0  0
   35.6880   35.5020   17.0440 C   0  0  0  0  0  0  0  0  0  0  0  0
   33.8500   39.0680   23.8800 C   0  0  0  0  0  0  0  0  0  0  0  0
   34.6920   37.8400   21.5610 C   0  0  0  0  0  0  0  0  0  0  0  0
   35.2410   37.1470   20.4250 C   0  0  0  0  0  0  0  0  0  0  0  0
   37.6490   36.4660   16.1150 C   0  0  0  0  0  0  0  0  0  0  0  0
   38.2870   36.4770   17.3590 C   0  0  0  0  0  0  0  0  0  0  0  0
   37.5840   36.0330   18.4840 C   0  0  0  0  0  0  0  0  0  0  0  0
   33.9690   37.1210   22.5560 C   0  0  0  0  0  0  0  0  0  0  0  0
   34.8450   39.2370   21.7660 C   0  0  0  0  0  0  0  0  0  0  0  0
   35.0590   35.8100   20.3320 C   0  0  0  0  0  0  0  0  0  0  0  0
   36.2840   35.5460   18.3210 C   0  0  0  0  0  0  0  0  0  0  0  0
   34.4720   34.9850   16.9420 F   0  0  0  0  0  0  0  0  0  0  0  0
   35.5530   34.9460   19.3570 O   0  0  0  0  0  0  0  0  0  0  0  0
   34.4420   39.8660   22.8810 N   0  0  0  0  0  0  0  0  0  0  0  0
   34.0220   33.8190   21.1820 O   0  0  0  0  0  0  0  0  0  0  0  0
   33.6530   35.7610   22.3630 N   0  0  0  0  0  0  0  0  0  0  0  0
   33.5650   37.7230   23.7180 N   0  0  0  0  0  0  0  0  0  0  0  0
   33.5220   39.6670   25.0720 N   0  0  0  0  0  0  0  0  0  0  0  0
   35.8860   35.9700   14.9270 H   0  0  0  0  0  0  0  0  0  0  0  0
   35.7970   37.7320   19.6890 H   0  0  0  0  0  0  0  0  0  0  0  0
   39.3080   36.8560   17.4600 H   0  0  0  0  0  0  0  0  0  0  0  0
   38.0450   36.0910   19.4730 H   0  0  0  0  0  0  0  0  0  0  0  0
   35.3130   39.8550   20.9830 H   0  0  0  0  0  0  0  0  0  0  0  0
   33.7130   40.6750   25.2200 H   0  0  0  0  0  0  0  0  0  0  0  0
   38.2860   36.9870   15.0680 F   0  0  0  0  0  0  0  0  0  0  0  0
   33.1610   40.5740   28.1630 C   0  0  0  0  0  0  0  0  0  0  0  0
   32.2590   39.7810   27.2080 C   0  0  0  0  0  0  0  0  0  0  0  0
   33.0320   38.8660   26.2390 C   0  0  0  0  0  0  0  0  0  0  0  0
   34.1930   38.1390   26.9530 C   0  0  0  0  0  0  0  0  0  0  0  0
   35.0140   39.0820   27.8350 C   0  0  0  0  0  0  0  0  0  0  0  0
   34.1660   39.7540   28.7950 O   0  0  0  0  0  0  0  0  0  0  0  0
   32.5780   40.9540   29.0340 H   0  0  0  0  0  0  0  0  0  0  0  0
   33.6730   41.4020   27.6250 H   0  0  0  0  0  0  0  0  0  0  0  0
   31.6390   40.5000   26.6180 H   0  0  0  0  0  0  0  0  0  0  0  0
   31.5670   39.1300   27.7980 H   0  0  0  0  0  0  0  0  0  0  0  0
   32.3140   38.0930   25.8350 H   0  0  0  0  0  0  0  0  0  0  0  0
   33.7430   37.3290   27.5810 H   0  0  0  0  0  0  0  0  0  0  0  0
   34.8610   37.6540   26.2000 H   0  0  0  0  0  0  0  0  0  0  0  0
   35.7140   38.5190   28.4920 H   0  0  0  0  0  0  0  0  0  0  0  0
   35.5420   39.8460   27.2200 H   0  0  0  0  0  0  0  0  0  0  0  0
   32.6160   35.1180   23.2440 C   0  0  0  0  0  0  0  0  0  0  0  0
   31.8540   35.9150   23.4910 H   0  0  0  0  0  0  0  0  0  0  0  0
   32.1250   34.3070   22.6340 H   0  0  0  0  0  0  0  0  0  0  0  0
   33.1970   34.5430   24.5370 C   0  0  0  0  0  0  0  0  0  0  0  0
   34.0110   33.8080   24.3040 H   0  0  0  0  0  0  0  0  0  0  0  0
   33.6960   35.3790   25.1090 H   0  0  0  0  0  0  0  0  0  0  0  0
   31.9750   33.7780   25.5680 S   0  0  0  0  0  0  0  0  0  0  0  0
   32.6280   33.1630   26.7480 O   0  0  0  0  0  0  0  0  0  0  0  0
   31.2400   32.7520   24.7910 O   0  0  0  0  0  0  0  0  0  0  0  0
   30.9050   35.0530   26.0510 C   0  0  0  0  0  0  0  0  0  0  0  0
   30.2520   35.4260   25.2190 H   0  0  0  0  0  0  0  0  0  0  0  0
   30.2000   34.7480   26.8720 H   0  0  0  0  0  0  0  0  0  0  0  0
   31.4530   35.9460   26.4520 H   0  0  0  0  0  0  0  0  0  0  0  0
  1  3  2  0  0  0  0
  1  7  1  0  0  0  0
  1 21  1  0  0  0  0
  2 12  1  0  0  0  0
  2 17  2  0  0  0  0
  2 18  1  0  0  0  0
  3 13  1  0  0  0  0
  3 14  1  0  0  0  0
  4 16  2  0  0  0  0
  4 19  1  0  0  0  0
  4 20  1  0  0  0  0
  5  6  1  0  0  0  0
  5 10  1  0  0  0  0
  5 11  2  0  0  0  0
  6 12  2  0  0  0  0
  6 22  1  0  0  0  0
  7  8  2  0  0  0  0
  7 27  1  0  0  0  0
  8  9  1  0  0  0  0
  8 23  1  0  0  0  0
  9 13  2  0  0  0  0
  9 24  1  0  0  0  0
 10 18  1  0  0  0  0
 10 19  2  0  0  0  0
 11 16  1  0  0  0  0
 11 25  1  0  0  0  0
 12 15  1  0  0  0  0
 13 15  1  0  0  0  0
 18 43  1  0  0  0  0
 20 26  1  0  0  0  0
 20 30  1  0  0  0  0
 28 29  1  0  0  0  0
 28 33  1  0  0  0  0
 28 34  1  0  0  0  0
 28 35  1  0  0  0  0
 29 30  1  0  0  0  0
 29 36  1  0  0  0  0
 29 37  1  0  0  0  0
 30 31  1  0  0  0  0
 30 38  1  0  0  0  0
 31 32  1  0  0  0  0
 31 39  1  0  0  0  0
 31 40  1  0  0  0  0
 32 33  1  0  0  0  0
 32 41  1  0  0  0  0
 32 42  1  0  0  0  0
 43 44  1  0  0  0  0
 43 45  1  0  0  0  0
 43 46  1  0  0  0  0
 46 47  1  0  0  0  0
 46 48  1  0  0  0  0
 46 49  1  0  0  0  0
 49 50  2  0  0  0  0
 49 51  2  0  0  0  0
 49 52  1  0  0  0  0
 52 53  1  0  0  0  0
 52 54  1  0  0  0  0
 52 55  1  0  0  0  0
M  END
$$$$
