18637-1
 OpenBabel02232411163D
Structure written by MMmdl.
 53 54  0  0  0  0  0  0  0  0999 V2000
   23.8090   12.6610   30.3570 C   0  0  0  0  0  0  0  0  0  0  0  0
   23.3770   11.2120   30.4720 C   0  0  0  0  0  0  0  0  0  0  0  0
   22.1330   11.2970   31.2780 O   0  0  0  0  0  0  0  0  0  0  0  0
   21.5000   10.1520   31.6100 C   0  0  0  0  0  0  0  0  0  0  0  0
   21.9770    8.9690   31.1570 N   0  0  0  0  0  0  0  0  0  0  0  0
   21.2430    7.8280   31.4580 C   0  0  0  0  0  0  0  0  0  0  0  0
   20.0910    7.8600   32.2380 C   0  0  0  0  0  0  0  0  0  0  0  0
   19.6100    9.1040   32.7230 C   0  0  0  0  0  0  0  0  0  0  0  0
   18.4700    9.1400   33.4850 N   0  0  0  0  0  0  0  0  0  0  0  0
   20.3150   10.3050   32.3910 C   0  0  0  0  0  0  0  0  0  0  0  0
   19.8890   11.6020   32.7450 C   0  0  0  0  0  0  0  0  0  0  0  0
   19.5820   12.6940   32.9900 N   0  0  0  0  0  0  0  0  0  0  0  0
   21.7990    6.6760   30.8650 N   0  0  0  0  0  0  0  0  0  0  0  0
   21.1980    5.3970   30.7710 C   0  0  0  0  0  0  0  0  0  0  0  0
   20.1230    5.1410   31.2720 O   0  0  0  0  0  0  0  0  0  0  0  0
   21.9980    4.4180   29.9200 C   0  0  0  0  0  0  0  0  0  0  0  0
   23.3250    4.0720   30.5240 C   0  0  0  0  0  0  0  0  0  0  0  0
   24.4570    4.8910   30.3180 C   0  0  0  0  0  0  0  0  0  0  0  0
   24.2050    5.9750   29.4940 O   0  0  0  0  0  0  0  0  0  0  0  0
   25.2060    7.0240   29.4010 C   0  0  0  0  0  0  0  0  0  0  0  0
   25.7050    4.6020   30.8880 C   0  0  0  0  0  0  0  0  0  0  0  0
   25.8510    3.4550   31.6720 C   0  0  0  0  0  0  0  0  0  0  0  0
   24.7120    2.6140   31.8730 C   0  0  0  0  0  0  0  0  0  0  0  0
   23.4780    2.9170   31.3060 C   0  0  0  0  0  0  0  0  0  0  0  0
   24.9790    1.5330   32.6970 O   0  0  0  0  0  0  0  0  0  0  0  0
   24.0150    0.4490   32.7190 C   0  0  0  0  0  0  0  0  0  0  0  0
   27.0820    3.1160   32.3060 N   0  0  0  0  0  0  0  0  0  0  0  0
   28.3690    3.3440   31.7580 C   0  0  0  0  0  0  0  0  0  0  0  0
   28.5010    3.8710   30.6660 O   0  0  0  0  0  0  0  0  0  0  0  0
   29.4920    2.8860   32.6350 C   0  0  0  0  0  0  0  0  0  0  0  0
   24.0380   13.0980   31.3550 H   0  0  0  0  0  0  0  0  0  0  0  0
   23.0170   13.2770   29.8680 H   0  0  0  0  0  0  0  0  0  0  0  0
   24.7300   12.7130   29.7230 H   0  0  0  0  0  0  0  0  0  0  0  0
   23.1120   10.7680   29.4860 H   0  0  0  0  0  0  0  0  0  0  0  0
   24.1110   10.5890   31.0300 H   0  0  0  0  0  0  0  0  0  0  0  0
   19.5380    6.9460   32.4670 H   0  0  0  0  0  0  0  0  0  0  0  0
   18.0650   10.0220   33.7970 H   0  0  0  0  0  0  0  0  0  0  0  0
   17.9680    8.2660   33.7370 H   0  0  0  0  0  0  0  0  0  0  0  0
   22.7200    6.8210   30.3810 H   0  0  0  0  0  0  0  0  0  0  0  0
   21.3900    3.4880   29.7830 H   0  0  0  0  0  0  0  0  0  0  0  0
   22.1610    4.8880   28.9110 H   0  0  0  0  0  0  0  0  0  0  0  0
   25.4660    7.4050   30.4110 H   0  0  0  0  0  0  0  0  0  0  0  0
   26.0910    6.6450   28.8490 H   0  0  0  0  0  0  0  0  0  0  0  0
   24.6580    7.7960   28.8100 H   0  0  0  0  0  0  0  0  0  0  0  0
   26.5580    5.2660   30.7240 H   0  0  0  0  0  0  0  0  0  0  0  0
   22.6230    2.2560   31.4660 H   0  0  0  0  0  0  0  0  0  0  0  0
   24.5420   -0.2990   33.3580 H   0  0  0  0  0  0  0  0  0  0  0  0
   23.0710    0.7880   33.1970 H   0  0  0  0  0  0  0  0  0  0  0  0
   23.8550    0.0590   31.6910 H   0  0  0  0  0  0  0  0  0  0  0  0
   27.0110    2.5090   33.1400 H   0  0  0  0  0  0  0  0  0  0  0  0
   29.5050    1.7700   32.7350 H   0  0  0  0  0  0  0  0  0  0  0  0
   30.4820    3.1970   32.2130 H   0  0  0  0  0  0  0  0  0  0  0  0
   29.4180    3.3180   33.6670 H   0  0  0  0  0  0  0  0  0  0  0  0
  1  2  1  0  0  0  0
  1 31  1  0  0  0  0
  1 32  1  0  0  0  0
  1 33  1  0  0  0  0
  2  3  1  0  0  0  0
  2 34  1  0  0  0  0
  2 35  1  0  0  0  0
  3  4  1  0  0  0  0
  4 10  2  0  0  0  0
  4  5  1  0  0  0  0
  5  6  2  0  0  0  0
  6  7  1  0  0  0  0
  6 13  1  0  0  0  0
  7  8  2  0  0  0  0
  7 36  1  0  0  0  0
  8  9  1  0  0  0  0
  8 10  1  0  0  0  0
  9 37  1  0  0  0  0
  9 38  1  0  0  0  0
 10 11  1  0  0  0  0
 11 12  3  0  0  0  0
 13 14  1  0  0  0  0
 13 39  1  0  0  0  0
 14 15  2  0  0  0  0
 14 16  1  0  0  0  0
 16 17  1  0  0  0  0
 16 40  1  0  0  0  0
 16 41  1  0  0  0  0
 17 24  2  0  0  0  0
 17 18  1  0  0  0  0
 18 19  1  0  0  0  0
 18 21  2  0  0  0  0
 19 20  1  0  0  0  0
 20 42  1  0  0  0  0
 20 43  1  0  0  0  0
 20 44  1  0  0  0  0
 21 22  1  0  0  0  0
 21 45  1  0  0  0  0
 22 23  2  0  0  0  0
 22 27  1  0  0  0  0
 23 24  1  0  0  0  0
 23 25  1  0  0  0  0
 24 46  1  0  0  0  0
 25 26  1  0  0  0  0
 26 47  1  0  0  0  0
 26 48  1  0  0  0  0
 26 49  1  0  0  0  0
 27 28  1  0  0  0  0
 27 50  1  0  0  0  0
 28 29  2  0  0  0  0
 28 30  1  0  0  0  0
 30 51  1  0  0  0  0
 30 52  1  0  0  0  0
 30 53  1  0  0  0  0
M  END
$$$$
