p38a_3fmk
 OpenBabel02232411163D
Structure written by MMmdl.
 46 49  0  0  1  0  0  0  0  0999 V2000
   35.6770   35.5670   16.8900 C   0  0  0  0  0  0  0  0  0  0  0  0
   36.3460   36.0430   15.7670 C   0  0  0  0  0  0  0  0  0  0  0  0
   34.0750   35.0660   23.8280 C   0  0  0  0  0  0  0  0  0  0  0  0
   38.2730   36.5440   17.2190 C   0  0  0  0  0  0  0  0  0  0  0  0
   34.7830   39.3530   21.5220 C   0  0  0  0  0  0  0  0  0  0  0  0
   33.9630   39.2600   26.3230 C   0  0  1  0  0  0  0  0  0  0  0  0
   32.5560   39.7690   26.7900 C   0  0  0  0  0  0  0  0  0  0  0  0
   34.3530   39.2200   23.8230 C   0  0  0  0  0  0  0  0  0  0  0  0
   34.6210   35.0710   21.3610 C   0  0  0  0  0  0  0  0  0  0  0  0
   35.1470   35.8850   20.2320 C   0  0  0  0  0  0  0  0  0  0  0  0
   35.2000   37.2370   20.2390 C   0  0  0  0  0  0  0  0  0  0  0  0
   36.2660   35.6090   18.1700 C   0  0  0  0  0  0  0  0  0  0  0  0
   37.5660   36.0960   18.3390 C   0  0  0  0  0  0  0  0  0  0  0  0
   34.8280   37.9370   21.4380 C   0  0  0  0  0  0  0  0  0  0  0  0
   34.5130   37.2070   22.6240 C   0  0  0  0  0  0  0  0  0  0  0  0
   34.2540   39.9020   25.0150 N   0  0  0  0  0  0  0  0  0  0  0  0
   37.6380   36.5420   15.9730 C   0  0  0  0  0  0  0  0  0  0  0  0
   38.2760   37.0730   14.9320 F   0  0  0  0  0  0  0  0  0  0  0  0
   34.4610   35.0480   16.7810 F   0  0  0  0  0  0  0  0  0  0  0  0
   35.5160   35.0250   19.2000 O   0  0  0  0  0  0  0  0  0  0  0  0
   34.3660   33.8880   21.3160 O   0  0  0  0  0  0  0  0  0  0  0  0
   34.4130   35.8080   22.5810 N   0  0  0  0  0  0  0  0  0  0  0  0
   34.2880   37.8420   23.8220 N   0  0  0  0  0  0  0  0  0  0  0  0
   34.5450   40.0060   22.6700 N   0  0  0  0  0  0  0  0  0  0  0  0
   35.0550   39.6580   27.3180 C   0  0  0  0  0  0  0  0  0  0  0  0
   31.8800   38.7690   27.6390 N   0  0  0  0  0  0  0  0  0  0  0  0
   31.1490   37.7340   27.1400 N   0  0  0  0  0  0  0  0  0  0  0  0
   30.7780   37.0250   28.2420 C   0  0  0  0  0  0  0  0  0  0  0  0
   31.3060   37.6580   29.4010 N   0  0  0  0  0  0  0  0  0  0  0  0
   31.9670   38.7000   29.0100 N   0  0  0  0  0  0  0  0  0  0  0  0
   35.8790   36.0540   14.7800 H   0  0  0  0  0  0  0  0  0  0  0  0
   34.8110   35.3270   24.6370 H   0  0  0  0  0  0  0  0  0  0  0  0
   33.0460   35.3500   24.1780 H   0  0  0  0  0  0  0  0  0  0  0  0
   34.1100   33.9610   23.6440 H   0  0  0  0  0  0  0  0  0  0  0  0
   39.2940   36.9220   17.3270 H   0  0  0  0  0  0  0  0  0  0  0  0
   34.9390   39.9650   20.6190 H   0  0  0  0  0  0  0  0  0  0  0  0
   33.9450   38.1400   26.2080 H   0  0  0  0  0  0  0  0  0  0  0  0
   32.6820   40.7250   27.3740 H   0  0  0  0  0  0  0  0  0  0  0  0
   31.9090   39.9820   25.8920 H   0  0  0  0  0  0  0  0  0  0  0  0
   35.5360   37.8270   19.3830 H   0  0  0  0  0  0  0  0  0  0  0  0
   38.0250   36.1540   19.3290 H   0  0  0  0  0  0  0  0  0  0  0  0
   34.2030   40.9390   25.0200 H   0  0  0  0  0  0  0  0  0  0  0  0
   36.0340   39.2310   27.0020 H   0  0  0  0  0  0  0  0  0  0  0  0
   35.1570   40.7690   27.3790 H   0  0  0  0  0  0  0  0  0  0  0  0
   34.8130   39.2740   28.3360 H   0  0  0  0  0  0  0  0  0  0  0  0
   30.1760   36.1170   28.2540 H   0  0  0  0  0  0  0  0  0  0  0  0
  1  2  2  0  0  0  0
  1 12  1  0  0  0  0
  1 19  1  0  0  0  0
  2 17  1  0  0  0  0
  2 31  1  0  0  0  0
  3 22  1  0  0  0  0
  3 32  1  0  0  0  0
  3 33  1  0  0  0  0
  3 34  1  0  0  0  0
  4 13  1  0  0  0  0
  4 17  2  0  0  0  0
  4 35  1  0  0  0  0
  5 14  2  0  0  0  0
  5 24  1  0  0  0  0
  5 36  1  0  0  0  0
  6  7  1  0  0  0  0
  6 16  1  0  0  0  0
  6 25  1  0  0  0  0
  6 37  1  6  0  0  0
  7 26  1  0  0  0  0
  7 38  1  0  0  0  0
  7 39  1  0  0  0  0
  8 16  1  0  0  0  0
  8 23  1  0  0  0  0
  8 24  2  0  0  0  0
  9 10  1  0  0  0  0
  9 21  2  0  0  0  0
  9 22  1  0  0  0  0
 10 11  2  0  0  0  0
 10 20  1  0  0  0  0
 11 14  1  0  0  0  0
 11 40  1  0  0  0  0
 12 13  2  0  0  0  0
 12 20  1  0  0  0  0
 13 41  1  0  0  0  0
 14 15  1  0  0  0  0
 15 22  1  0  0  0  0
 15 23  2  0  0  0  0
 16 42  1  0  0  0  0
 17 18  1  0  0  0  0
 25 43  1  0  0  0  0
 25 44  1  0  0  0  0
 25 45  1  0  0  0  0
 26 27  1  0  0  0  0
 26 30  1  0  0  0  0
 27 28  2  0  0  0  0
 28 29  1  0  0  0  0
 28 46  1  0  0  0  0
 29 30  2  0  0  0  0
M  END
$$$$
