p38a_2aa
 OpenBabel02232411163D
Structure written by MMmdl.
 43 45  0  0  0  0  0  0  0  0999 V2000
   38.2640   36.5240   17.1630 C   0  0  0  0  0  0  0  0  0  0  0  0
   34.5610   35.1370   21.2500 C   0  0  0  0  0  0  0  0  0  0  0  0
   37.4710   36.0690   18.2130 C   0  0  0  0  0  0  0  0  0  0  0  0
   34.1800   39.2640   23.7340 C   0  0  0  0  0  0  0  0  0  0  0  0
   33.4730   39.3140   26.1480 C   0  0  0  0  0  0  0  0  0  0  0  0
   34.6790   38.0140   21.3380 C   0  0  0  0  0  0  0  0  0  0  0  0
   35.0290   37.3300   20.1230 C   0  0  0  0  0  0  0  0  0  0  0  0
   37.6240   36.6880   15.9260 C   0  0  0  0  0  0  0  0  0  0  0  0
   36.2760   36.3920   15.7110 C   0  0  0  0  0  0  0  0  0  0  0  0
   35.5050   35.9230   16.7790 C   0  0  0  0  0  0  0  0  0  0  0  0
   34.3610   37.2680   22.5130 C   0  0  0  0  0  0  0  0  0  0  0  0
   34.6520   39.4290   21.4440 C   0  0  0  0  0  0  0  0  0  0  0  0
   35.0130   35.9780   20.1090 C   0  0  0  0  0  0  0  0  0  0  0  0
   36.1080   35.7540   18.0280 C   0  0  0  0  0  0  0  0  0  0  0  0
   33.9510   35.1110   23.6990 C   0  0  0  0  0  0  0  0  0  0  0  0
   37.9950   35.9290   19.4240 F   0  0  0  0  0  0  0  0  0  0  0  0
   35.3750   35.1420   19.0550 O   0  0  0  0  0  0  0  0  0  0  0  0
   34.4090   40.0640   22.6020 N   0  0  0  0  0  0  0  0  0  0  0  0
   34.4060   33.9360   21.2230 O   0  0  0  0  0  0  0  0  0  0  0  0
   34.2970   35.8670   22.4620 N   0  0  0  0  0  0  0  0  0  0  0  0
   34.1030   37.8900   23.7130 N   0  0  0  0  0  0  0  0  0  0  0  0
   34.0970   39.9330   24.9480 N   0  0  0  0  0  0  0  0  0  0  0  0
   39.3180   36.7800   17.3040 H   0  0  0  0  0  0  0  0  0  0  0  0
   34.1570   39.9620   27.3800 C   0  0  0  0  0  0  0  0  0  0  0  0
   35.3140   37.9320   19.2570 H   0  0  0  0  0  0  0  0  0  0  0  0
   35.8130   36.5390   14.7330 H   0  0  0  0  0  0  0  0  0  0  0  0
   34.4410   35.7090   16.6320 H   0  0  0  0  0  0  0  0  0  0  0  0
   34.8210   40.0540   20.5530 H   0  0  0  0  0  0  0  0  0  0  0  0
   34.6500   35.3960   24.5320 H   0  0  0  0  0  0  0  0  0  0  0  0
   32.9000   35.3560   24.0130 H   0  0  0  0  0  0  0  0  0  0  0  0
   34.0330   34.0080   23.5140 H   0  0  0  0  0  0  0  0  0  0  0  0
   33.9880   40.9700   24.9230 H   0  0  0  0  0  0  0  0  0  0  0  0
   38.3300   37.1890   14.9160 F   0  0  0  0  0  0  0  0  0  0  0  0
   31.9430   39.5930   26.1420 C   0  0  0  0  0  0  0  0  0  0  0  0
   31.2850   38.8740   27.1840 O   0  0  0  0  0  0  0  0  0  0  0  0
   31.8180   38.9910   28.0210 H   0  0  0  0  0  0  0  0  0  0  0  0
   31.7550   40.6850   26.2770 H   0  0  0  0  0  0  0  0  0  0  0  0
   31.4650   39.2100   25.2120 H   0  0  0  0  0  0  0  0  0  0  0  0
   33.6920   39.1930   28.5170 O   0  0  0  0  0  0  0  0  0  0  0  0
   35.2670   39.8670   27.3190 H   0  0  0  0  0  0  0  0  0  0  0  0
   33.8510   41.0270   27.5100 H   0  0  0  0  0  0  0  0  0  0  0  0
   33.9940   39.6490   29.3470 H   0  0  0  0  0  0  0  0  0  0  0  0
   33.6630   38.2040   26.1680 H   0  0  0  0  0  0  0  0  0  0  0  0
  1  3  2  0  0  0  0
  1  8  1  0  0  0  0
  1 23  1  0  0  0  0
  2 13  1  0  0  0  0
  2 19  2  0  0  0  0
  2 20  1  0  0  0  0
  3 14  1  0  0  0  0
  3 16  1  0  0  0  0
  4 18  2  0  0  0  0
  4 21  1  0  0  0  0
  4 22  1  0  0  0  0
  5 22  1  0  0  0  0
  5 24  1  0  0  0  0
  5 34  1  0  0  0  0
  5 43  1  0  0  0  0
  6  7  1  0  0  0  0
  6 11  1  0  0  0  0
  6 12  2  0  0  0  0
  7 13  2  0  0  0  0
  7 25  1  0  0  0  0
  8  9  2  0  0  0  0
  8 33  1  0  0  0  0
  9 10  1  0  0  0  0
  9 26  1  0  0  0  0
 10 14  2  0  0  0  0
 10 27  1  0  0  0  0
 11 20  1  0  0  0  0
 11 21  2  0  0  0  0
 12 18  1  0  0  0  0
 12 28  1  0  0  0  0
 13 17  1  0  0  0  0
 14 17  1  0  0  0  0
 15 20  1  0  0  0  0
 15 29  1  0  0  0  0
 15 30  1  0  0  0  0
 15 31  1  0  0  0  0
 22 32  1  0  0  0  0
 24 39  1  0  0  0  0
 24 40  1  0  0  0  0
 24 41  1  0  0  0  0
 34 35  1  0  0  0  0
 34 37  1  0  0  0  0
 34 38  1  0  0  0  0
 35 36  1  0  0  0  0
 39 42  1  0  0  0  0
M  END
$$$$
