18639-1
 OpenBabel02232411163D
Structure written by MMmdl.
 48 49  0  0  0  0  0  0  0  0999 V2000
   24.4430   10.9330   30.7570 C   0  0  0  0  0  0  0  0  0  0  0  0
   23.1120   11.2760   30.1230 C   0  0  0  0  0  0  0  0  0  0  0  0
   22.0390   11.3310   31.1380 O   0  0  0  0  0  0  0  0  0  0  0  0
   21.4550   10.1800   31.5450 C   0  0  0  0  0  0  0  0  0  0  0  0
   21.9370    8.9920   31.1110 N   0  0  0  0  0  0  0  0  0  0  0  0
   21.2420    7.8490   31.4760 C   0  0  0  0  0  0  0  0  0  0  0  0
   20.1050    7.8800   32.2760 C   0  0  0  0  0  0  0  0  0  0  0  0
   19.6140    9.1310   32.7380 C   0  0  0  0  0  0  0  0  0  0  0  0
   18.4790    9.1670   33.5060 N   0  0  0  0  0  0  0  0  0  0  0  0
   20.3030   10.3320   32.3740 C   0  0  0  0  0  0  0  0  0  0  0  0
   19.8880   11.6300   32.7380 C   0  0  0  0  0  0  0  0  0  0  0  0
   19.5970   12.7240   32.9950 N   0  0  0  0  0  0  0  0  0  0  0  0
   21.8290    6.6860   30.9260 N   0  0  0  0  0  0  0  0  0  0  0  0
   21.2660    5.3940   30.8780 C   0  0  0  0  0  0  0  0  0  0  0  0
   20.1950    5.1170   31.3740 O   0  0  0  0  0  0  0  0  0  0  0  0
   22.1020    4.4050   30.0710 C   0  0  0  0  0  0  0  0  0  0  0  0
   23.4780    4.1630   30.6170 C   0  0  0  0  0  0  0  0  0  0  0  0
   24.5580    5.0430   30.2890 C   0  0  0  0  0  0  0  0  0  0  0  0
   24.1760    6.0910   29.4610 O   0  0  0  0  0  0  0  0  0  0  0  0
   25.1140    7.1890   29.2850 C   0  0  0  0  0  0  0  0  0  0  0  0
   25.8470    4.8160   30.7440 C   0  0  0  0  0  0  0  0  0  0  0  0
   26.1050    3.7020   31.5710 C   0  0  0  0  0  0  0  0  0  0  0  0
   27.4680    3.4660   32.0550 N   0  3  0  0  0  0  0  0  0  0  0  0
   27.6310    2.6450   32.9450 O   0  5  0  0  0  0  0  0  0  0  0  0
   28.3880    4.0950   31.5450 O   0  0  0  0  0  0  0  0  0  0  0  0
   25.0500    2.8210   31.9050 C   0  0  0  0  0  0  0  0  0  0  0  0
   23.7450    3.0600   31.4130 C   0  0  0  0  0  0  0  0  0  0  0  0
   25.4230    1.7850   32.7060 O   0  0  0  0  0  0  0  0  0  0  0  0
   24.4420    0.7350   32.9570 C   0  0  0  0  0  0  0  0  0  0  0  0
   25.2290   10.8910   29.9610 H   0  0  0  0  0  0  0  0  0  0  0  0
   24.7390   11.6970   31.5060 H   0  0  0  0  0  0  0  0  0  0  0  0
   24.4080    9.9320   31.2500 H   0  0  0  0  0  0  0  0  0  0  0  0
   23.0750   12.3330   29.7630 H   0  0  0  0  0  0  0  0  0  0  0  0
   22.8280   10.5550   29.3230 H   0  0  0  0  0  0  0  0  0  0  0  0
   19.5730    6.9630   32.5360 H   0  0  0  0  0  0  0  0  0  0  0  0
   17.9780    8.2920   33.7580 H   0  0  0  0  0  0  0  0  0  0  0  0
   18.0660   10.0510   33.8050 H   0  0  0  0  0  0  0  0  0  0  0  0
   22.7350    6.8460   30.4160 H   0  0  0  0  0  0  0  0  0  0  0  0
   21.5440    3.4310   30.0220 H   0  0  0  0  0  0  0  0  0  0  0  0
   22.1950    4.8100   29.0230 H   0  0  0  0  0  0  0  0  0  0  0  0
   25.4730    7.5650   30.2670 H   0  0  0  0  0  0  0  0  0  0  0  0
   25.9450    6.8510   28.6290 H   0  0  0  0  0  0  0  0  0  0  0  0
   24.4700    7.9450   28.7770 H   0  0  0  0  0  0  0  0  0  0  0  0
   26.6760    5.4760   30.4610 H   0  0  0  0  0  0  0  0  0  0  0  0
   22.9420    2.3600   31.6550 H   0  0  0  0  0  0  0  0  0  0  0  0
   25.0470    0.0050   33.5470 H   0  0  0  0  0  0  0  0  0  0  0  0
   23.5990    1.1340   33.5610 H   0  0  0  0  0  0  0  0  0  0  0  0
   24.1050    0.2880   31.9960 H   0  0  0  0  0  0  0  0  0  0  0  0
  1  2  1  0  0  0  0
  1 30  1  0  0  0  0
  1 31  1  0  0  0  0
  1 32  1  0  0  0  0
  2  3  1  0  0  0  0
  2 33  1  0  0  0  0
  2 34  1  0  0  0  0
  3  4  1  0  0  0  0
  4 10  2  0  0  0  0
  4  5  1  0  0  0  0
  5  6  2  0  0  0  0
  6  7  1  0  0  0  0
  6 13  1  0  0  0  0
  7  8  2  0  0  0  0
  7 35  1  0  0  0  0
  8  9  1  0  0  0  0
  8 10  1  0  0  0  0
  9 36  1  0  0  0  0
  9 37  1  0  0  0  0
 10 11  1  0  0  0  0
 11 12  3  0  0  0  0
 13 14  1  0  0  0  0
 13 38  1  0  0  0  0
 14 15  2  0  0  0  0
 14 16  1  0  0  0  0
 16 17  1  0  0  0  0
 16 39  1  0  0  0  0
 16 40  1  0  0  0  0
 17 27  2  0  0  0  0
 17 18  1  0  0  0  0
 18 19  1  0  0  0  0
 18 21  2  0  0  0  0
 19 20  1  0  0  0  0
 20 41  1  0  0  0  0
 20 42  1  0  0  0  0
 20 43  1  0  0  0  0
 21 22  1  0  0  0  0
 21 44  1  0  0  0  0
 22 23  1  0  0  0  0
 22 26  2  0  0  0  0
 23 24  1  0  0  0  0
 23 25  2  0  0  0  0
 26 27  1  0  0  0  0
 26 28  1  0  0  0  0
 27 45  1  0  0  0  0
 28 29  1  0  0  0  0
 29 46  1  0  0  0  0
 29 47  1  0  0  0  0
 29 48  1  0  0  0  0
M  CHG  2  23   1  24  -1
M  END
$$$$
