CAT-13i
 OpenBabel02232411143D
Structure written by MMmdl.
 46 49  0  0  1  0  0  0  0  0999 V2000
   11.6330   -2.2020    1.2350 C   0  0  0  0  0  0  0  0  0  0  0  0
   12.9900   -2.1900    0.6490 N   0  0  0  0  0  0  0  0  0  0  0  0
   14.1640   -2.3110    1.3920 C   0  0  0  0  0  0  0  0  0  0  0  0
   14.2890   -2.3850    2.7460 N   0  0  0  0  0  0  0  0  0  0  0  0
   15.2670   -2.3780    0.5330 N   0  3  0  0  0  0  0  0  0  0  0  0
   14.8060   -2.6960   -0.8710 C   0  0  2  0  0  0  0  0  0  0  0  0
   14.9670   -4.2030   -1.1520 C   0  0  0  0  0  0  0  0  0  0  0  0
   13.9070   -5.0540   -0.4740 C   0  0  0  0  0  0  0  0  0  0  0  0
   14.2460   -6.4190    0.1080 C   0  0  0  0  0  0  0  0  0  0  0  0
   13.9000   -5.2760    1.0360 C   0  0  0  0  0  0  0  0  0  0  0  0
   15.4720   -1.7170   -1.8180 C   0  0  0  0  0  0  0  0  0  0  0  0
   16.3510   -2.1290   -2.8250 C   0  0  0  0  0  0  0  0  0  0  0  0
   16.8730   -1.1800   -3.7120 C   0  0  0  0  0  0  0  0  0  0  0  0
   16.5430    0.1700   -3.5920 C   0  0  0  0  0  0  0  0  0  0  0  0
   15.7140    0.6020   -2.5420 C   0  0  0  0  0  0  0  0  0  0  0  0
   15.4130    2.0380   -2.3380 C   0  0  0  0  0  0  0  0  0  0  0  0
   15.5660    2.5980   -1.0590 C   0  0  0  0  0  0  0  0  0  0  0  0
   15.2090    3.9270   -0.8170 C   0  0  0  0  0  0  0  0  0  0  0  0
   14.7140    4.7210   -1.8540 C   0  0  0  0  0  0  0  0  0  0  0  0
   14.6230    4.1680   -3.1360 C   0  0  0  0  0  0  0  0  0  0  0  0
   14.0690    5.1620   -4.4240 Cl  0  0  0  0  0  0  0  0  0  0  0  0
   14.9570    2.8370   -3.3980 C   0  0  0  0  0  0  0  0  0  0  0  0
   15.1750   -0.3510   -1.6670 C   0  0  0  0  0  0  0  0  0  0  0  0
   13.2760   -2.3750   -0.7900 C   0  0  0  0  0  0  0  0  0  0  0  0
   12.4360   -2.2560   -1.6230 O   0  0  0  0  0  0  0  0  0  0  0  0
   11.6710   -2.4440    2.3290 H   0  0  0  0  0  0  0  0  0  0  0  0
   11.1700   -1.1890    1.0930 H   0  0  0  0  0  0  0  0  0  0  0  0
   11.0110   -2.9840    0.7220 H   0  0  0  0  0  0  0  0  0  0  0  0
   13.5710   -1.9920    3.3980 H   0  0  0  0  0  0  0  0  0  0  0  0
   16.1690   -2.7780    0.9020 H   0  0  0  0  0  0  0  0  0  0  0  0
   15.9920   -4.5190   -0.8240 H   0  0  0  0  0  0  0  0  0  0  0  0
   14.8840   -4.3840   -2.2560 H   0  0  0  0  0  0  0  0  0  0  0  0
   12.9280   -4.9700   -0.9720 H   0  0  0  0  0  0  0  0  0  0  0  0
   13.5140   -7.2300   -0.0210 H   0  0  0  0  0  0  0  0  0  0  0  0
   15.2810   -6.7680    0.0610 H   0  0  0  0  0  0  0  0  0  0  0  0
   14.6930   -4.8430    1.6520 H   0  0  0  0  0  0  0  0  0  0  0  0
   12.9370   -5.2860    1.5640 H   0  0  0  0  0  0  0  0  0  0  0  0
   16.6400   -3.1760   -2.9220 H   0  0  0  0  0  0  0  0  0  0  0  0
   17.5550   -1.4980   -4.5060 H   0  0  0  0  0  0  0  0  0  0  0  0
   16.9360    0.8900   -4.3150 H   0  0  0  0  0  0  0  0  0  0  0  0
   15.9560    1.9850   -0.2440 H   0  0  0  0  0  0  0  0  0  0  0  0
   15.3080    4.3340    0.1940 H   0  0  0  0  0  0  0  0  0  0  0  0
   14.3870    5.7450   -1.6580 H   0  0  0  0  0  0  0  0  0  0  0  0
   14.8560    2.4190   -4.4040 H   0  0  0  0  0  0  0  0  0  0  0  0
   14.5270   -0.0280   -0.8510 H   0  0  0  0  0  0  0  0  0  0  0  0
   15.2610   -2.3770    3.1630 H   0  0  0  0  0  0  0  0  0  0  0  0
  1  2  1  0  0  0  0
  1 26  1  0  0  0  0
  1 27  1  0  0  0  0
  1 28  1  0  0  0  0
  2  3  1  0  0  0  0
  2 24  1  0  0  0  0
  3  4  1  0  0  0  0
  3  5  2  0  0  0  0
  4 29  1  0  0  0  0
  4 46  1  0  0  0  0
  5  6  1  0  0  0  0
  5 30  1  0  0  0  0
  6  7  1  6  0  0  0
  6 11  1  0  0  0  0
  6 24  1  0  0  0  0
  7  8  1  0  0  0  0
  7 31  1  0  0  0  0
  7 32  1  0  0  0  0
  8  9  1  0  0  0  0
  8 10  1  0  0  0  0
  8 33  1  0  0  0  0
  9 10  1  0  0  0  0
  9 34  1  0  0  0  0
  9 35  1  0  0  0  0
 10 36  1  0  0  0  0
 10 37  1  0  0  0  0
 11 12  2  0  0  0  0
 11 23  1  0  0  0  0
 12 13  1  0  0  0  0
 12 38  1  0  0  0  0
 13 14  2  0  0  0  0
 13 39  1  0  0  0  0
 14 15  1  0  0  0  0
 14 40  1  0  0  0  0
 15 16  1  0  0  0  0
 15 23  2  0  0  0  0
 16 17  2  0  0  0  0
 16 22  1  0  0  0  0
 17 18  1  0  0  0  0
 17 41  1  0  0  0  0
 18 19  2  0  0  0  0
 18 42  1  0  0  0  0
 19 20  1  0  0  0  0
 19 43  1  0  0  0  0
 20 21  1  0  0  0  0
 20 22  2  0  0  0  0
 22 44  1  0  0  0  0
 23 45  1  0  0  0  0
 24 25  2  0  0  0  0
M  CHG  1   5   1
M  END
$$$$
