CAT-17a
 OpenBabel02232411143D
Structure written by MMmdl.
 43 46  0  0  1  0  0  0  0  0999 V2000
   11.6710   -2.6480    1.3280 C   0  0  0  0  0  0  0  0  0  0  0  0
   12.9810   -2.4420    0.6780 N   0  0  0  0  0  0  0  0  0  0  0  0
   14.1740   -2.4330    1.4020 C   0  0  0  0  0  0  0  0  0  0  0  0
   14.3050   -2.5270    2.7570 N   0  0  0  0  0  0  0  0  0  0  0  0
   15.2620   -2.3550    0.5270 N   0  3  0  0  0  0  0  0  0  0  0  0
   14.8170   -2.6790   -0.8810 C   0  0  1  0  0  0  0  0  0  0  0  0
   15.4200   -1.6580   -1.8190 C   0  0  0  0  0  0  0  0  0  0  0  0
   16.3180   -2.0350   -2.8250 C   0  0  0  0  0  0  0  0  0  0  0  0
   16.8280   -1.0620   -3.6910 C   0  0  0  0  0  0  0  0  0  0  0  0
   16.4770    0.2810   -3.5390 C   0  0  0  0  0  0  0  0  0  0  0  0
   15.6240    0.6740   -2.4940 C   0  0  0  0  0  0  0  0  0  0  0  0
   15.3020    2.0980   -2.2480 C   0  0  0  0  0  0  0  0  0  0  0  0
   15.3280    2.5840   -0.9290 C   0  0  0  0  0  0  0  0  0  0  0  0
   14.9240    3.8940   -0.6720 C   0  0  0  0  0  0  0  0  0  0  0  0
   14.8390    4.4240    0.9640 Cl  0  0  0  0  0  0  0  0  0  0  0  0
   14.5450    4.7630   -1.6970 C   0  0  0  0  0  0  0  0  0  0  0  0
   14.5870    4.2750   -3.0070 C   0  0  0  0  0  0  0  0  0  0  0  0
   14.1620    5.3260   -4.2940 Cl  0  0  0  0  0  0  0  0  0  0  0  0
   14.9450    2.9550   -3.2990 C   0  0  0  0  0  0  0  0  0  0  0  0
   15.0770   -0.3080   -1.6550 C   0  0  0  0  0  0  0  0  0  0  0  0
   15.0410   -4.1380   -1.2510 C   0  0  0  0  0  0  0  0  0  0  0  0
   16.2420   -4.9030   -0.7220 C   0  0  0  0  0  0  0  0  0  0  0  0
   14.8590   -5.2410   -0.2130 C   0  0  0  0  0  0  0  0  0  0  0  0
   13.2620   -2.5190   -0.7720 C   0  0  0  0  0  0  0  0  0  0  0  0
   12.4000   -2.4640   -1.5880 O   0  0  0  0  0  0  0  0  0  0  0  0
   11.5780   -3.7160    1.6690 H   0  0  0  0  0  0  0  0  0  0  0  0
   11.5840   -1.9730    2.2150 H   0  0  0  0  0  0  0  0  0  0  0  0
   10.8510   -2.4100    0.5990 H   0  0  0  0  0  0  0  0  0  0  0  0
   13.5710   -2.1330    3.3980 H   0  0  0  0  0  0  0  0  0  0  0  0
   16.2030   -2.6720    0.8850 H   0  0  0  0  0  0  0  0  0  0  0  0
   16.6240   -3.0770   -2.9310 H   0  0  0  0  0  0  0  0  0  0  0  0
   17.5160   -1.3560   -4.4900 H   0  0  0  0  0  0  0  0  0  0  0  0
   16.8740    1.0250   -4.2350 H   0  0  0  0  0  0  0  0  0  0  0  0
   15.6510    1.9310   -0.1160 H   0  0  0  0  0  0  0  0  0  0  0  0
   14.2010    5.7790   -1.4810 H   0  0  0  0  0  0  0  0  0  0  0  0
   14.9330    2.5900   -4.3320 H   0  0  0  0  0  0  0  0  0  0  0  0
   14.3860   -0.0240   -0.8610 H   0  0  0  0  0  0  0  0  0  0  0  0
   14.7110   -4.3540   -2.2830 H   0  0  0  0  0  0  0  0  0  0  0  0
   16.7710   -5.5790   -1.3910 H   0  0  0  0  0  0  0  0  0  0  0  0
   16.9480   -4.3970   -0.0600 H   0  0  0  0  0  0  0  0  0  0  0  0
   14.5980   -4.9780    0.8190 H   0  0  0  0  0  0  0  0  0  0  0  0
   14.3740   -6.1740   -0.5290 H   0  0  0  0  0  0  0  0  0  0  0  0
   15.2780   -2.4300    3.1650 H   0  0  0  0  0  0  0  0  0  0  0  0
  1  2  1  0  0  0  0
  1 26  1  0  0  0  0
  1 27  1  0  0  0  0
  1 28  1  0  0  0  0
  2  3  1  0  0  0  0
  2 24  1  0  0  0  0
  3  4  1  0  0  0  0
  3  5  2  0  0  0  0
  4 29  1  0  0  0  0
  4 43  1  0  0  0  0
  5  6  1  0  0  0  0
  5 30  1  0  0  0  0
  6  7  1  6  0  0  0
  6 21  1  0  0  0  0
  6 24  1  0  0  0  0
  7  8  2  0  0  0  0
  7 20  1  0  0  0  0
  8  9  1  0  0  0  0
  8 31  1  0  0  0  0
  9 10  2  0  0  0  0
  9 32  1  0  0  0  0
 10 11  1  0  0  0  0
 10 33  1  0  0  0  0
 11 12  1  0  0  0  0
 11 20  2  0  0  0  0
 12 13  2  0  0  0  0
 12 19  1  0  0  0  0
 13 14  1  0  0  0  0
 13 34  1  0  0  0  0
 14 15  1  0  0  0  0
 14 16  2  0  0  0  0
 16 17  1  0  0  0  0
 16 35  1  0  0  0  0
 17 18  1  0  0  0  0
 17 19  2  0  0  0  0
 19 36  1  0  0  0  0
 20 37  1  0  0  0  0
 21 22  1  0  0  0  0
 21 23  1  0  0  0  0
 21 38  1  0  0  0  0
 22 23  1  0  0  0  0
 22 39  1  0  0  0  0
 22 40  1  0  0  0  0
 23 41  1  0  0  0  0
 23 42  1  0  0  0  0
 24 25  2  0  0  0  0
M  CHG  1   5   1
M  END
$$$$
