p38a_3fln
 OpenBabel02232411163D
Structure written by MMmdl.
 46 49  0  0  0  0  0  0  0  0999 V2000
   32.3070   39.6710   27.0130 C   0  0  0  0  0  0  0  0  0  0  0  0
   32.1990   38.9850   28.3800 C   0  0  0  0  0  0  0  0  0  0  0  0
   34.5210   38.3190   28.3360 C   0  0  0  0  0  0  0  0  0  0  0  0
   34.7420   38.9630   26.9610 C   0  0  0  0  0  0  0  0  0  0  0  0
   38.2800   36.5520   17.1300 C   0  0  0  0  0  0  0  0  0  0  0  0
   33.4680   38.9820   29.0740 O   0  0  0  0  0  0  0  0  0  0  0  0
   34.5600   35.0850   21.1660 C   0  0  0  0  0  0  0  0  0  0  0  0
   37.4780   36.0900   18.1700 C   0  0  0  0  0  0  0  0  0  0  0  0
   33.9640   39.1450   23.7290 C   0  0  0  0  0  0  0  0  0  0  0  0
   33.4110   38.9890   26.1760 C   0  0  0  0  0  0  0  0  0  0  0  0
   34.6180   37.9650   21.3230 C   0  0  0  0  0  0  0  0  0  0  0  0
   35.0020   37.3160   20.0990 C   0  0  0  0  0  0  0  0  0  0  0  0
   37.6500   36.7300   15.8910 C   0  0  0  0  0  0  0  0  0  0  0  0
   36.3020   36.4450   15.6630 C   0  0  0  0  0  0  0  0  0  0  0  0
   35.5210   35.9680   16.7200 C   0  0  0  0  0  0  0  0  0  0  0  0
   34.2850   37.1830   22.4690 C   0  0  0  0  0  0  0  0  0  0  0  0
   34.5710   39.3770   21.4740 C   0  0  0  0  0  0  0  0  0  0  0  0
   35.0030   35.9640   20.0520 C   0  0  0  0  0  0  0  0  0  0  0  0
   36.1150   35.7820   17.9710 C   0  0  0  0  0  0  0  0  0  0  0  0
   33.9200   34.9940   23.6070 C   0  0  0  0  0  0  0  0  0  0  0  0
   37.9920   35.9380   19.3840 F   0  0  0  0  0  0  0  0  0  0  0  0
   38.3650   37.2350   14.8880 F   0  0  0  0  0  0  0  0  0  0  0  0
   35.3730   35.1530   18.9790 O   0  0  0  0  0  0  0  0  0  0  0  0
   34.2620   39.9790   22.6320 N   0  0  0  0  0  0  0  0  0  0  0  0
   34.4390   33.8800   21.1080 O   0  0  0  0  0  0  0  0  0  0  0  0
   34.2630   35.7800   22.3890 N   0  0  0  0  0  0  0  0  0  0  0  0
   33.9780   37.7650   23.6720 N   0  0  0  0  0  0  0  0  0  0  0  0
   33.5710   39.7510   24.9010 N   0  0  0  0  0  0  0  0  0  0  0  0
   31.3310   39.5960   26.4770 H   0  0  0  0  0  0  0  0  0  0  0  0
   32.5500   40.7510   27.1530 H   0  0  0  0  0  0  0  0  0  0  0  0
   31.5520   39.5670   29.0760 H   0  0  0  0  0  0  0  0  0  0  0  0
   31.8410   37.9350   28.2730 H   0  0  0  0  0  0  0  0  0  0  0  0
   34.2630   37.2390   28.2320 H   0  0  0  0  0  0  0  0  0  0  0  0
   35.4040   38.4670   28.9980 H   0  0  0  0  0  0  0  0  0  0  0  0
   35.1280   40.0030   27.0850 H   0  0  0  0  0  0  0  0  0  0  0  0
   35.5010   38.3690   26.3990 H   0  0  0  0  0  0  0  0  0  0  0  0
   39.3340   36.8000   17.2820 H   0  0  0  0  0  0  0  0  0  0  0  0
   33.0930   37.9350   25.9380 H   0  0  0  0  0  0  0  0  0  0  0  0
   35.2920   37.9410   19.2520 H   0  0  0  0  0  0  0  0  0  0  0  0
   35.8460   36.6060   14.6840 H   0  0  0  0  0  0  0  0  0  0  0  0
   34.4580   35.7580   16.5630 H   0  0  0  0  0  0  0  0  0  0  0  0
   34.7930   40.0290   20.6130 H   0  0  0  0  0  0  0  0  0  0  0  0
   34.6380   35.2400   24.4360 H   0  0  0  0  0  0  0  0  0  0  0  0
   32.8820   35.2500   23.9520 H   0  0  0  0  0  0  0  0  0  0  0  0
   33.9730   33.8960   23.3890 H   0  0  0  0  0  0  0  0  0  0  0  0
   33.6820   40.7790   25.0080 H   0  0  0  0  0  0  0  0  0  0  0  0
  1  2  1  0  0  0  0
  1 10  1  0  0  0  0
  1 29  1  0  0  0  0
  1 30  1  0  0  0  0
  2  6  1  0  0  0  0
  2 31  1  0  0  0  0
  2 32  1  0  0  0  0
  3  4  1  0  0  0  0
  3  6  1  0  0  0  0
  3 33  1  0  0  0  0
  3 34  1  0  0  0  0
  4 10  1  0  0  0  0
  4 35  1  0  0  0  0
  4 36  1  0  0  0  0
  5  8  2  0  0  0  0
  5 13  1  0  0  0  0
  5 37  1  0  0  0  0
  7 18  1  0  0  0  0
  7 25  2  0  0  0  0
  7 26  1  0  0  0  0
  8 19  1  0  0  0  0
  8 21  1  0  0  0  0
  9 24  2  0  0  0  0
  9 27  1  0  0  0  0
  9 28  1  0  0  0  0
 10 28  1  0  0  0  0
 10 38  1  0  0  0  0
 11 12  1  0  0  0  0
 11 16  1  0  0  0  0
 11 17  2  0  0  0  0
 12 18  2  0  0  0  0
 12 39  1  0  0  0  0
 13 14  2  0  0  0  0
 13 22  1  0  0  0  0
 14 15  1  0  0  0  0
 14 40  1  0  0  0  0
 15 19  2  0  0  0  0
 15 41  1  0  0  0  0
 16 26  1  0  0  0  0
 16 27  2  0  0  0  0
 17 24  1  0  0  0  0
 17 42  1  0  0  0  0
 18 23  1  0  0  0  0
 19 23  1  0  0  0  0
 20 26  1  0  0  0  0
 20 43  1  0  0  0  0
 20 44  1  0  0  0  0
 20 45  1  0  0  0  0
 28 46  1  0  0  0  0
M  END
$$$$
