32
 OpenBabel02232411163D
Structure written by MMmdl.
 41 43  0  0  0  0  0  0  0  0999 V2000
    3.4900  -48.3200    7.1190 O   0  0  0  0  0  0  0  0  0  0  0  0
    3.0980  -49.2650    6.4230 C   0  0  0  0  0  0  0  0  0  0  0  0
    3.8050  -50.0710    5.7880 O   0  5  0  0  0  0  0  0  0  0  0  0
    1.5820  -49.5250    6.3350 C   0  0  0  0  0  0  0  0  0  0  0  0
   -0.3120  -50.8010    6.5040 C   0  0  0  0  0  0  0  0  0  0  0  0
   -1.2610  -51.8100    6.7410 C   0  0  0  0  0  0  0  0  0  0  0  0
   -2.5850  -51.5230    6.4460 C   0  0  0  0  0  0  0  0  0  0  0  0
   -2.9640  -50.2640    5.9210 C   0  0  0  0  0  0  0  0  0  0  0  0
   -2.0310  -49.2630    5.6880 C   0  0  0  0  0  0  0  0  0  0  0  0
   -0.6800  -49.5080    5.9830 C   0  0  0  0  0  0  0  0  0  0  0  0
    0.5330  -48.7220    5.9020 C   0  0  0  0  0  0  0  0  0  0  0  0
    0.5730  -47.3070    5.4450 C   0  0  0  0  0  0  0  0  0  0  0  0
    0.5200  -46.3020    6.6100 C   0  0  0  0  0  0  0  0  0  0  0  0
   -0.7850  -46.3470    7.4000 C   0  0  0  0  0  0  0  0  0  0  0  0
   -1.7860  -45.7800    6.4790 O   0  0  0  0  0  0  0  0  0  0  0  0
   -3.0450  -45.5590    6.9640 C   0  0  0  0  0  0  0  0  0  0  0  0
   -3.5370  -46.0380    8.1890 C   0  0  0  0  0  0  0  0  0  0  0  0
   -4.8520  -45.7370    8.5510 C   0  0  0  0  0  0  0  0  0  0  0  0
   -5.6730  -44.9680    7.7180 C   0  0  0  0  0  0  0  0  0  0  0  0
   -5.1630  -44.4970    6.4920 C   0  0  0  0  0  0  0  0  0  0  0  0
   -3.8610  -44.7880    6.1040 C   0  0  0  0  0  0  0  0  0  0  0  0
   -0.9750  -52.7810    7.1460 H   0  0  0  0  0  0  0  0  0  0  0  0
   -3.3570  -52.2730    6.6220 H   0  0  0  0  0  0  0  0  0  0  0  0
   -4.0180  -50.0890    5.7010 H   0  0  0  0  0  0  0  0  0  0  0  0
   -2.3520  -48.3000    5.2860 H   0  0  0  0  0  0  0  0  0  0  0  0
   -0.3140  -47.1150    4.7870 H   0  0  0  0  0  0  0  0  0  0  0  0
    1.5010  -47.1070    4.8580 H   0  0  0  0  0  0  0  0  0  0  0  0
    0.6380  -45.2710    6.2030 H   0  0  0  0  0  0  0  0  0  0  0  0
    1.3520  -46.5200    7.3240 H   0  0  0  0  0  0  0  0  0  0  0  0
   -0.7500  -45.6820    8.2900 H   0  0  0  0  0  0  0  0  0  0  0  0
   -1.1130  -47.3800    7.6380 H   0  0  0  0  0  0  0  0  0  0  0  0
   -2.9360  -46.6470    8.8580 H   0  0  0  0  0  0  0  0  0  0  0  0
   -3.4770  -44.4380    5.1490 H   0  0  0  0  0  0  0  0  0  0  0  0
    1.0770  -50.7860    6.7090 N   0  0  0  0  0  0  0  0  0  0  0  0
    1.5990  -51.5820    7.0570 H   0  0  0  0  0  0  0  0  0  0  0  0
   -5.8040  -43.9080    5.8350 H   0  0  0  0  0  0  0  0  0  0  0  0
   -5.2460  -46.1160    9.4970 H   0  0  0  0  0  0  0  0  0  0  0  0
   -7.0880  -44.6700    8.1010 C   0  0  0  0  0  0  0  0  0  0  0  0
   -7.3070  -43.5870    7.9640 H   0  0  0  0  0  0  0  0  0  0  0  0
   -7.7850  -45.2560    7.4540 H   0  0  0  0  0  0  0  0  0  0  0  0
   -7.2900  -44.9430    9.1610 H   0  0  0  0  0  0  0  0  0  0  0  0
  1  2  2  0  0  0  0
  2  3  1  0  0  0  0
  2  4  1  0  0  0  0
  4 11  2  0  0  0  0
  4 34  1  0  0  0  0
  5  6  2  0  0  0  0
  5 10  1  0  0  0  0
  5 34  1  0  0  0  0
  6  7  1  0  0  0  0
  6 22  1  0  0  0  0
  7  8  2  0  0  0  0
  7 23  1  0  0  0  0
  8  9  1  0  0  0  0
  8 24  1  0  0  0  0
  9 10  2  0  0  0  0
  9 25  1  0  0  0  0
 10 11  1  0  0  0  0
 11 12  1  0  0  0  0
 12 26  1  0  0  0  0
 12 27  1  0  0  0  0
 12 13  1  0  0  0  0
 13 14  1  0  0  0  0
 13 28  1  0  0  0  0
 13 29  1  0  0  0  0
 14 15  1  0  0  0  0
 14 30  1  0  0  0  0
 14 31  1  0  0  0  0
 15 16  1  0  0  0  0
 16 17  2  0  0  0  0
 16 21  1  0  0  0  0
 17 18  1  0  0  0  0
 17 32  1  0  0  0  0
 18 19  2  0  0  0  0
 18 37  1  0  0  0  0
 19 20  1  0  0  0  0
 19 38  1  0  0  0  0
 20 21  2  0  0  0  0
 20 36  1  0  0  0  0
 21 33  1  0  0  0  0
 34 35  1  0  0  0  0
 38 39  1  0  0  0  0
 38 40  1  0  0  0  0
 38 41  1  0  0  0  0
M  CHG  1   3  -1
M  END
$$$$
