p38a_2t
 OpenBabel02232411163D
Structure written by MMmdl.
 47 50  0  0  0  0  0  0  0  0999 V2000
   36.3540   36.0550   15.7870 C   0  0  0  0  0  0  0  0  0  0  0  0
   34.5610   34.9990   21.3000 C   0  0  0  0  0  0  0  0  0  0  0  0
   35.7140   35.5750   16.9260 C   0  0  0  0  0  0  0  0  0  0  0  0
   34.0310   39.0900   23.8500 C   0  0  0  0  0  0  0  0  0  0  0  0
   34.7590   37.8680   21.4840 C   0  0  0  0  0  0  0  0  0  0  0  0
   35.2280   37.2020   20.2980 C   0  0  0  0  0  0  0  0  0  0  0  0
   37.6470   36.5650   15.9650 C   0  0  0  0  0  0  0  0  0  0  0  0
   38.3070   36.5800   17.1980 C   0  0  0  0  0  0  0  0  0  0  0  0
   37.6280   36.1270   18.3340 C   0  0  0  0  0  0  0  0  0  0  0  0
   34.3100   37.1110   22.6040 C   0  0  0  0  0  0  0  0  0  0  0  0
   34.7440   39.2830   21.6240 C   0  0  0  0  0  0  0  0  0  0  0  0
   35.1700   35.8520   20.2440 C   0  0  0  0  0  0  0  0  0  0  0  0
   36.3310   35.6230   18.1920 C   0  0  0  0  0  0  0  0  0  0  0  0
   34.5020   35.0430   16.8430 F   0  0  0  0  0  0  0  0  0  0  0  0
   35.6280   35.0070   19.2360 O   0  0  0  0  0  0  0  0  0  0  0  0
   34.3950   39.9060   22.7600 N   0  0  0  0  0  0  0  0  0  0  0  0
   34.3820   33.8060   21.2310 O   0  0  0  0  0  0  0  0  0  0  0  0
   34.1910   35.7090   22.5040 N   0  0  0  0  0  0  0  0  0  0  0  0
   33.9800   37.7080   23.7900 N   0  0  0  0  0  0  0  0  0  0  0  0
   33.6530   39.7130   25.0150 N   0  0  0  0  0  0  0  0  0  0  0  0
   35.8660   36.0570   14.8100 H   0  0  0  0  0  0  0  0  0  0  0  0
   35.6330   37.8160   19.4900 H   0  0  0  0  0  0  0  0  0  0  0  0
   39.3250   36.9680   17.2840 H   0  0  0  0  0  0  0  0  0  0  0  0
   38.1060   36.1950   19.3150 H   0  0  0  0  0  0  0  0  0  0  0  0
   35.0260   39.9190   20.7680 H   0  0  0  0  0  0  0  0  0  0  0  0
   33.7650   40.7410   25.1060 H   0  0  0  0  0  0  0  0  0  0  0  0
   38.2600   37.0940   14.9090 F   0  0  0  0  0  0  0  0  0  0  0  0
   32.2520   39.0410   28.5050 C   0  0  0  0  0  0  0  0  0  0  0  0
   32.3900   39.7110   27.1310 C   0  0  0  0  0  0  0  0  0  0  0  0
   33.4480   38.9640   26.2930 C   0  0  0  0  0  0  0  0  0  0  0  0
   34.7790   38.8630   27.0710 C   0  0  0  0  0  0  0  0  0  0  0  0
   34.5290   38.2400   28.4490 C   0  0  0  0  0  0  0  0  0  0  0  0
   33.5230   38.9690   29.1900 O   0  0  0  0  0  0  0  0  0  0  0  0
   31.8320   38.0130   28.4050 H   0  0  0  0  0  0  0  0  0  0  0  0
   31.6430   39.6650   29.1980 H   0  0  0  0  0  0  0  0  0  0  0  0
   32.6910   40.7770   27.2640 H   0  0  0  0  0  0  0  0  0  0  0  0
   31.4080   39.6860   26.6000 H   0  0  0  0  0  0  0  0  0  0  0  0
   33.0660   37.9310   26.0530 H   0  0  0  0  0  0  0  0  0  0  0  0
   35.5000   38.2260   26.5040 H   0  0  0  0  0  0  0  0  0  0  0  0
   35.2250   39.8800   27.1860 H   0  0  0  0  0  0  0  0  0  0  0  0
   34.2050   37.1770   28.3540 H   0  0  0  0  0  0  0  0  0  0  0  0
   35.4240   38.3400   29.1060 H   0  0  0  0  0  0  0  0  0  0  0  0
   33.6630   34.9200   23.6620 C   0  0  0  0  0  0  0  0  0  0  0  0
   33.3430   35.6070   24.5110 H   0  0  0  0  0  0  0  0  0  0  0  0
   32.7400   34.3470   23.3400 H   0  0  0  0  0  0  0  0  0  0  0  0
   34.6860   33.9970   24.1530 C   0  0  0  0  0  0  0  0  0  0  0  0
   35.4980   33.2650   24.5250 N   0  0  0  0  0  0  0  0  0  0  0  0
  1  3  2  0  0  0  0
  1  7  1  0  0  0  0
  1 21  1  0  0  0  0
  2 12  1  0  0  0  0
  2 17  2  0  0  0  0
  2 18  1  0  0  0  0
  3 13  1  0  0  0  0
  3 14  1  0  0  0  0
  4 16  2  0  0  0  0
  4 19  1  0  0  0  0
  4 20  1  0  0  0  0
  5  6  1  0  0  0  0
  5 10  1  0  0  0  0
  5 11  2  0  0  0  0
  6 12  2  0  0  0  0
  6 22  1  0  0  0  0
  7  8  2  0  0  0  0
  7 27  1  0  0  0  0
  8  9  1  0  0  0  0
  8 23  1  0  0  0  0
  9 13  2  0  0  0  0
  9 24  1  0  0  0  0
 10 18  1  0  0  0  0
 10 19  2  0  0  0  0
 11 16  1  0  0  0  0
 11 25  1  0  0  0  0
 12 15  1  0  0  0  0
 13 15  1  0  0  0  0
 18 43  1  0  0  0  0
 20 26  1  0  0  0  0
 20 30  1  0  0  0  0
 28 29  1  0  0  0  0
 28 33  1  0  0  0  0
 28 34  1  0  0  0  0
 28 35  1  0  0  0  0
 29 30  1  0  0  0  0
 29 36  1  0  0  0  0
 29 37  1  0  0  0  0
 30 31  1  0  0  0  0
 30 38  1  0  0  0  0
 31 32  1  0  0  0  0
 31 39  1  0  0  0  0
 31 40  1  0  0  0  0
 32 33  1  0  0  0  0
 32 41  1  0  0  0  0
 32 42  1  0  0  0  0
 43 44  1  0  0  0  0
 43 45  1  0  0  0  0
 43 46  1  0  0  0  0
 46 47  3  0  0  0  0
M  END
$$$$
