p38a_2u
 OpenBabel02232411163D
Structure written by MMmdl.
 64 68  0  0  0  0  0  0  0  0999 V2000
   38.3230   36.5760   17.1170 C   0  0  0  0  0  0  0  0  0  0  0  0
   34.5820   35.0410   21.1640 C   0  0  0  0  0  0  0  0  0  0  0  0
   37.5430   36.1070   18.1720 C   0  0  0  0  0  0  0  0  0  0  0  0
   33.9960   39.0710   23.7790 C   0  0  0  0  0  0  0  0  0  0  0  0
   34.6800   37.8980   21.3850 C   0  0  0  0  0  0  0  0  0  0  0  0
   35.0920   37.2770   20.1560 C   0  0  0  0  0  0  0  0  0  0  0  0
   37.6740   36.7300   15.8840 C   0  0  0  0  0  0  0  0  0  0  0  0
   36.3290   36.4160   15.6750 C   0  0  0  0  0  0  0  0  0  0  0  0
   35.5710   35.9340   16.7470 C   0  0  0  0  0  0  0  0  0  0  0  0
   34.3100   37.1040   22.5150 C   0  0  0  0  0  0  0  0  0  0  0  0
   34.6390   39.3090   21.5410 C   0  0  0  0  0  0  0  0  0  0  0  0
   35.0810   35.9280   20.0800 C   0  0  0  0  0  0  0  0  0  0  0  0
   36.1850   35.7710   17.9920 C   0  0  0  0  0  0  0  0  0  0  0  0
   38.0750   35.9760   19.3800 F   0  0  0  0  0  0  0  0  0  0  0  0
   35.4720   35.1260   19.0110 O   0  0  0  0  0  0  0  0  0  0  0  0
   34.3110   39.9120   22.6930 N   0  0  0  0  0  0  0  0  0  0  0  0
   34.4420   33.8410   21.0600 O   0  0  0  0  0  0  0  0  0  0  0  0
   34.2530   35.7000   22.4060 N   0  0  0  0  0  0  0  0  0  0  0  0
   34.0030   37.6930   23.7150 N   0  0  0  0  0  0  0  0  0  0  0  0
   33.5850   39.6850   24.9450 N   0  0  0  0  0  0  0  0  0  0  0  0
   39.3730   36.8470   17.2560 H   0  0  0  0  0  0  0  0  0  0  0  0
   35.4100   37.9200   19.3330 H   0  0  0  0  0  0  0  0  0  0  0  0
   35.8580   36.5590   14.7010 H   0  0  0  0  0  0  0  0  0  0  0  0
   34.5090   35.7060   16.6070 H   0  0  0  0  0  0  0  0  0  0  0  0
   34.8820   39.9630   20.6860 H   0  0  0  0  0  0  0  0  0  0  0  0
   33.6940   40.7160   25.0320 H   0  0  0  0  0  0  0  0  0  0  0  0
   38.3660   37.2410   14.8690 F   0  0  0  0  0  0  0  0  0  0  0  0
   32.4320   39.0600   28.5280 C   0  0  0  0  0  0  0  0  0  0  0  0
   32.4280   39.6460   27.1110 C   0  0  0  0  0  0  0  0  0  0  0  0
   33.5090   38.9570   26.2480 C   0  0  0  0  0  0  0  0  0  0  0  0
   34.8820   38.9970   26.9580 C   0  0  0  0  0  0  0  0  0  0  0  0
   34.7570   38.4510   28.3840 C   0  0  0  0  0  0  0  0  0  0  0  0
   33.7400   39.1550   29.1360 O   0  0  0  0  0  0  0  0  0  0  0  0
   32.1110   37.9920   28.5180 H   0  0  0  0  0  0  0  0  0  0  0  0
   31.8030   39.6670   29.2170 H   0  0  0  0  0  0  0  0  0  0  0  0
   32.6270   40.7430   27.1630 H   0  0  0  0  0  0  0  0  0  0  0  0
   31.4270   39.4880   26.6440 H   0  0  0  0  0  0  0  0  0  0  0  0
   33.2070   37.8890   26.0620 H   0  0  0  0  0  0  0  0  0  0  0  0
   35.6120   38.3730   26.3900 H   0  0  0  0  0  0  0  0  0  0  0  0
   35.2570   40.0480   26.9890 H   0  0  0  0  0  0  0  0  0  0  0  0
   34.5060   37.3650   28.3730 H   0  0  0  0  0  0  0  0  0  0  0  0
   35.6760   38.6550   28.9790 H   0  0  0  0  0  0  0  0  0  0  0  0
   31.8110   34.0610   24.9130 C   0  0  0  0  0  0  0  0  0  0  0  0
   32.3100   35.1350   23.9220 C   0  0  0  0  0  0  0  0  0  0  0  0
   33.7610   34.8150   23.5280 C   0  0  0  0  0  0  0  0  0  0  0  0
   34.6550   34.8630   24.7780 C   0  0  0  0  0  0  0  0  0  0  0  0
   34.1700   33.7880   25.7800 C   0  0  0  0  0  0  0  0  0  0  0  0
   31.7280   33.0750   24.3860 H   0  0  0  0  0  0  0  0  0  0  0  0
   30.7970   34.3850   25.2740 H   0  0  0  0  0  0  0  0  0  0  0  0
   32.2520   36.1330   24.4260 H   0  0  0  0  0  0  0  0  0  0  0  0
   31.6400   35.1490   23.0350 H   0  0  0  0  0  0  0  0  0  0  0  0
   33.7920   33.7600   23.1190 H   0  0  0  0  0  0  0  0  0  0  0  0
   35.7190   34.6690   24.5200 H   0  0  0  0  0  0  0  0  0  0  0  0
   34.5840   35.8650   25.2720 H   0  0  0  0  0  0  0  0  0  0  0  0
   34.3660   32.7690   25.3550 H   0  0  0  0  0  0  0  0  0  0  0  0
   34.7510   33.9250   26.7320 H   0  0  0  0  0  0  0  0  0  0  0  0
   32.7210   33.9670   26.0920 N   0  0  0  0  0  0  0  0  0  0  0  0
   32.0780   33.3590   27.5580 S   0  0  0  0  0  0  0  0  0  0  0  0
   33.0790   32.4940   28.2150 O   0  0  0  0  0  0  0  0  0  0  0  0
   30.8320   32.6150   27.2760 O   0  0  0  0  0  0  0  0  0  0  0  0
   31.7760   34.7880   28.4820 C   0  0  0  0  0  0  0  0  0  0  0  0
   32.6830   35.4450   28.5440 H   0  0  0  0  0  0  0  0  0  0  0  0
   30.9640   35.4230   28.0320 H   0  0  0  0  0  0  0  0  0  0  0  0
   31.4610   34.5690   29.5340 H   0  0  0  0  0  0  0  0  0  0  0  0
  1  3  2  0  0  0  0
  1  7  1  0  0  0  0
  1 21  1  0  0  0  0
  2 12  1  0  0  0  0
  2 17  2  0  0  0  0
  2 18  1  0  0  0  0
  3 13  1  0  0  0  0
  3 14  1  0  0  0  0
  4 16  2  0  0  0  0
  4 19  1  0  0  0  0
  4 20  1  0  0  0  0
  5  6  1  0  0  0  0
  5 10  1  0  0  0  0
  5 11  2  0  0  0  0
  6 12  2  0  0  0  0
  6 22  1  0  0  0  0
  7  8  2  0  0  0  0
  7 27  1  0  0  0  0
  8  9  1  0  0  0  0
  8 23  1  0  0  0  0
  9 13  2  0  0  0  0
  9 24  1  0  0  0  0
 10 18  1  0  0  0  0
 10 19  2  0  0  0  0
 11 16  1  0  0  0  0
 11 25  1  0  0  0  0
 12 15  1  0  0  0  0
 13 15  1  0  0  0  0
 18 45  1  0  0  0  0
 20 26  1  0  0  0  0
 20 30  1  0  0  0  0
 28 29  1  0  0  0  0
 28 33  1  0  0  0  0
 28 34  1  0  0  0  0
 28 35  1  0  0  0  0
 29 30  1  0  0  0  0
 29 36  1  0  0  0  0
 29 37  1  0  0  0  0
 30 31  1  0  0  0  0
 30 38  1  0  0  0  0
 31 32  1  0  0  0  0
 31 39  1  0  0  0  0
 31 40  1  0  0  0  0
 32 33  1  0  0  0  0
 32 41  1  0  0  0  0
 32 42  1  0  0  0  0
 43 44  1  0  0  0  0
 43 48  1  0  0  0  0
 43 49  1  0  0  0  0
 43 57  1  0  0  0  0
 44 45  1  0  0  0  0
 44 50  1  0  0  0  0
 44 51  1  0  0  0  0
 45 46  1  0  0  0  0
 45 52  1  0  0  0  0
 46 47  1  0  0  0  0
 46 53  1  0  0  0  0
 46 54  1  0  0  0  0
 47 55  1  0  0  0  0
 47 56  1  0  0  0  0
 47 57  1  0  0  0  0
 57 58  1  0  0  0  0
 58 59  2  0  0  0  0
 58 60  2  0  0  0  0
 58 61  1  0  0  0  0
 61 62  1  0  0  0  0
 61 63  1  0  0  0  0
 61 64  1  0  0  0  0
M  END
$$$$
