p38a_2aa
 OpenBabel02232411163D
Structure written by MMmdl.
 43 45  0  0  0  0  0  0  0  0999 V2000
   36.3160   36.0010   15.9030 C   0  0  0  0  0  0  0  0  0  0  0  0
   34.4520   35.0560   21.4110 C   0  0  0  0  0  0  0  0  0  0  0  0
   35.6660   35.5520   17.0480 C   0  0  0  0  0  0  0  0  0  0  0  0
   33.8410   39.1950   23.8380 C   0  0  0  0  0  0  0  0  0  0  0  0
   32.9440   39.3050   26.2300 C   0  0  0  0  0  0  0  0  0  0  0  0
   34.6810   37.9230   21.5420 C   0  0  0  0  0  0  0  0  0  0  0  0
   35.1910   37.2270   20.3900 C   0  0  0  0  0  0  0  0  0  0  0  0
   37.6170   36.4910   16.0750 C   0  0  0  0  0  0  0  0  0  0  0  0
   38.2770   36.5100   17.3080 C   0  0  0  0  0  0  0  0  0  0  0  0
   37.5890   36.0840   18.4490 C   0  0  0  0  0  0  0  0  0  0  0  0
   34.1390   37.1940   22.6410 C   0  0  0  0  0  0  0  0  0  0  0  0
   34.7030   39.3380   21.6600 C   0  0  0  0  0  0  0  0  0  0  0  0
   35.1090   35.8770   20.3560 C   0  0  0  0  0  0  0  0  0  0  0  0
   36.2830   35.6040   18.3140 C   0  0  0  0  0  0  0  0  0  0  0  0
   33.4370   35.0640   23.7250 C   0  0  0  0  0  0  0  0  0  0  0  0
   34.4430   35.0430   16.9710 F   0  0  0  0  0  0  0  0  0  0  0  0
   35.5710   35.0130   19.3670 O   0  0  0  0  0  0  0  0  0  0  0  0
   34.3050   39.9850   22.7660 N   0  0  0  0  0  0  0  0  0  0  0  0
   34.2610   33.8610   21.3500 O   0  0  0  0  0  0  0  0  0  0  0  0
   34.0270   35.7960   22.5700 N   0  0  0  0  0  0  0  0  0  0  0  0
   33.7150   37.8240   23.7890 N   0  0  0  0  0  0  0  0  0  0  0  0
   33.5400   39.8790   24.9950 N   0  0  0  0  0  0  0  0  0  0  0  0
   35.8320   35.9960   14.9230 H   0  0  0  0  0  0  0  0  0  0  0  0
   31.5650   38.6560   25.9750 C   0  0  0  0  0  0  0  0  0  0  0  0
   35.6400   37.8200   19.5890 H   0  0  0  0  0  0  0  0  0  0  0  0
   39.3020   36.8820   17.3890 H   0  0  0  0  0  0  0  0  0  0  0  0
   38.0680   36.1500   19.4290 H   0  0  0  0  0  0  0  0  0  0  0  0
   35.0540   39.9530   20.8150 H   0  0  0  0  0  0  0  0  0  0  0  0
   34.0340   35.2720   24.6550 H   0  0  0  0  0  0  0  0  0  0  0  0
   32.3810   35.4060   23.8970 H   0  0  0  0  0  0  0  0  0  0  0  0
   33.4390   33.9600   23.5300 H   0  0  0  0  0  0  0  0  0  0  0  0
   33.5780   40.9180   24.9790 H   0  0  0  0  0  0  0  0  0  0  0  0
   38.2410   36.9960   15.0130 F   0  0  0  0  0  0  0  0  0  0  0  0
   33.9060   38.3170   26.9330 C   0  0  0  0  0  0  0  0  0  0  0  0
   35.0230   39.0200   27.4940 O   0  0  0  0  0  0  0  0  0  0  0  0
   35.5210   39.4680   26.7680 H   0  0  0  0  0  0  0  0  0  0  0  0
   33.4040   37.8760   27.8290 H   0  0  0  0  0  0  0  0  0  0  0  0
   34.2730   37.5240   26.2430 H   0  0  0  0  0  0  0  0  0  0  0  0
   30.8920   38.7640   27.2500 O   0  0  0  0  0  0  0  0  0  0  0  0
   30.9670   39.2370   25.2370 H   0  0  0  0  0  0  0  0  0  0  0  0
   31.6390   37.5830   25.6930 H   0  0  0  0  0  0  0  0  0  0  0  0
   30.1280   38.0840   27.2380 H   0  0  0  0  0  0  0  0  0  0  0  0
   32.7780   40.1900   26.9190 H   0  0  0  0  0  0  0  0  0  0  0  0
  1  3  2  0  0  0  0
  1  8  1  0  0  0  0
  1 23  1  0  0  0  0
  2 13  1  0  0  0  0
  2 19  2  0  0  0  0
  2 20  1  0  0  0  0
  3 14  1  0  0  0  0
  3 16  1  0  0  0  0
  4 18  2  0  0  0  0
  4 21  1  0  0  0  0
  4 22  1  0  0  0  0
  5 22  1  0  0  0  0
  5 24  1  0  0  0  0
  5 34  1  0  0  0  0
  5 43  1  0  0  0  0
  6  7  1  0  0  0  0
  6 11  1  0  0  0  0
  6 12  2  0  0  0  0
  7 13  2  0  0  0  0
  7 25  1  0  0  0  0
  8  9  2  0  0  0  0
  8 33  1  0  0  0  0
  9 10  1  0  0  0  0
  9 26  1  0  0  0  0
 10 14  2  0  0  0  0
 10 27  1  0  0  0  0
 11 20  1  0  0  0  0
 11 21  2  0  0  0  0
 12 18  1  0  0  0  0
 12 28  1  0  0  0  0
 13 17  1  0  0  0  0
 14 17  1  0  0  0  0
 15 20  1  0  0  0  0
 15 29  1  0  0  0  0
 15 30  1  0  0  0  0
 15 31  1  0  0  0  0
 22 32  1  0  0  0  0
 24 39  1  0  0  0  0
 24 40  1  0  0  0  0
 24 41  1  0  0  0  0
 34 35  1  0  0  0  0
 34 37  1  0  0  0  0
 34 38  1  0  0  0  0
 35 36  1  0  0  0  0
 39 42  1  0  0  0  0
M  END
$$$$
