p38a_2p
 OpenBabel02232411163D
Structure written by MMmdl.
 58 61  0  0  0  0  0  0  0  0999 V2000
   38.2500   36.5400   17.1240 C   0  0  0  0  0  0  0  0  0  0  0  0
   34.7150   35.1220   21.2140 C   0  0  0  0  0  0  0  0  0  0  0  0
   37.4300   36.0870   18.1540 C   0  0  0  0  0  0  0  0  0  0  0  0
   34.2300   39.1770   23.7980 C   0  0  0  0  0  0  0  0  0  0  0  0
   34.7250   38.0000   21.3540 C   0  0  0  0  0  0  0  0  0  0  0  0
   34.9940   37.3540   20.0980 C   0  0  0  0  0  0  0  0  0  0  0  0
   37.6340   36.7360   15.8800 C   0  0  0  0  0  0  0  0  0  0  0  0
   36.2830   36.4750   15.6390 C   0  0  0  0  0  0  0  0  0  0  0  0
   35.4830   36.0090   16.6880 C   0  0  0  0  0  0  0  0  0  0  0  0
   34.5810   37.2180   22.5390 C   0  0  0  0  0  0  0  0  0  0  0  0
   34.6160   39.4090   21.4970 C   0  0  0  0  0  0  0  0  0  0  0  0
   35.0190   36.0030   20.0530 C   0  0  0  0  0  0  0  0  0  0  0  0
   36.0630   35.8100   17.9440 C   0  0  0  0  0  0  0  0  0  0  0  0
   37.9330   35.9140   19.3710 F   0  0  0  0  0  0  0  0  0  0  0  0
   35.2880   35.2030   18.9420 O   0  0  0  0  0  0  0  0  0  0  0  0
   34.3810   40.0130   22.6720 N   0  0  0  0  0  0  0  0  0  0  0  0
   34.5370   33.9260   21.1640 O   0  0  0  0  0  0  0  0  0  0  0  0
   34.6570   35.8140   22.4780 N   0  0  0  0  0  0  0  0  0  0  0  0
   34.3580   37.8030   23.7590 N   0  0  0  0  0  0  0  0  0  0  0  0
   33.8720   39.7760   24.9830 N   0  0  0  0  0  0  0  0  0  0  0  0
   39.3070   36.7690   17.2860 H   0  0  0  0  0  0  0  0  0  0  0  0
   35.1790   37.9810   19.2240 H   0  0  0  0  0  0  0  0  0  0  0  0
   35.8390   36.6470   14.6570 H   0  0  0  0  0  0  0  0  0  0  0  0
   34.4180   35.8190   16.5210 H   0  0  0  0  0  0  0  0  0  0  0  0
   34.7210   40.0610   20.6120 H   0  0  0  0  0  0  0  0  0  0  0  0
   33.8920   40.8100   25.0660 H   0  0  0  0  0  0  0  0  0  0  0  0
   38.3660   37.2340   14.8870 F   0  0  0  0  0  0  0  0  0  0  0  0
   32.6190   39.0390   28.5150 C   0  0  0  0  0  0  0  0  0  0  0  0
   32.6340   39.6440   27.1050 C   0  0  0  0  0  0  0  0  0  0  0  0
   33.7830   39.0290   26.2740 C   0  0  0  0  0  0  0  0  0  0  0  0
   35.1240   39.1300   27.0360 C   0  0  0  0  0  0  0  0  0  0  0  0
   34.9700   38.5410   28.4430 C   0  0  0  0  0  0  0  0  0  0  0  0
   33.8990   39.1850   29.1720 O   0  0  0  0  0  0  0  0  0  0  0  0
   32.3500   37.9570   28.4780 H   0  0  0  0  0  0  0  0  0  0  0  0
   31.9360   39.6050   29.1880 H   0  0  0  0  0  0  0  0  0  0  0  0
   32.7660   40.7490   27.1760 H   0  0  0  0  0  0  0  0  0  0  0  0
   31.6600   39.4330   26.6000 H   0  0  0  0  0  0  0  0  0  0  0  0
   33.5490   37.9470   26.0640 H   0  0  0  0  0  0  0  0  0  0  0  0
   35.9060   38.5590   26.4820 H   0  0  0  0  0  0  0  0  0  0  0  0
   35.4380   40.1990   27.1030 H   0  0  0  0  0  0  0  0  0  0  0  0
   34.7660   37.4450   28.3900 H   0  0  0  0  0  0  0  0  0  0  0  0
   35.8580   38.7630   29.0770 H   0  0  0  0  0  0  0  0  0  0  0  0
   34.6480   35.0200   23.7480 C   0  0  0  0  0  0  0  0  0  0  0  0
   35.1250   34.0240   23.5500 H   0  0  0  0  0  0  0  0  0  0  0  0
   35.2580   35.5710   24.5200 H   0  0  0  0  0  0  0  0  0  0  0  0
   33.2200   34.8150   24.2960 C   0  0  0  0  0  0  0  0  0  0  0  0
   32.7610   35.8230   24.4770 H   0  0  0  0  0  0  0  0  0  0  0  0
   32.6040   34.2630   23.5470 H   0  0  0  0  0  0  0  0  0  0  0  0
   33.2950   34.0410   25.6150 C   0  0  0  0  0  0  0  0  0  0  0  0
   33.9330   34.6260   26.3390 H   0  0  0  0  0  0  0  0  0  0  0  0
   33.8390   33.0720   25.4520 H   0  0  0  0  0  0  0  0  0  0  0  0
   31.7210   33.7320   26.3310 S   0  0  0  0  0  0  0  0  0  0  0  0
   31.8790   32.9970   27.6140 O   0  0  0  0  0  0  0  0  0  0  0  0
   30.8790   32.9440   25.3970 O   0  0  0  0  0  0  0  0  0  0  0  0
   31.0170   35.2950   26.6110 C   0  0  0  0  0  0  0  0  0  0  0  0
   30.6650   35.7890   25.6690 H   0  0  0  0  0  0  0  0  0  0  0  0
   30.1280   35.2540   27.2930 H   0  0  0  0  0  0  0  0  0  0  0  0
   31.7450   36.0040   27.0850 H   0  0  0  0  0  0  0  0  0  0  0  0
  1  3  2  0  0  0  0
  1  7  1  0  0  0  0
  1 21  1  0  0  0  0
  2 12  1  0  0  0  0
  2 17  2  0  0  0  0
  2 18  1  0  0  0  0
  3 13  1  0  0  0  0
  3 14  1  0  0  0  0
  4 16  2  0  0  0  0
  4 19  1  0  0  0  0
  4 20  1  0  0  0  0
  5  6  1  0  0  0  0
  5 10  1  0  0  0  0
  5 11  2  0  0  0  0
  6 12  2  0  0  0  0
  6 22  1  0  0  0  0
  7  8  2  0  0  0  0
  7 27  1  0  0  0  0
  8  9  1  0  0  0  0
  8 23  1  0  0  0  0
  9 13  2  0  0  0  0
  9 24  1  0  0  0  0
 10 18  1  0  0  0  0
 10 19  2  0  0  0  0
 11 16  1  0  0  0  0
 11 25  1  0  0  0  0
 12 15  1  0  0  0  0
 13 15  1  0  0  0  0
 18 43  1  0  0  0  0
 20 26  1  0  0  0  0
 20 30  1  0  0  0  0
 28 29  1  0  0  0  0
 28 33  1  0  0  0  0
 28 34  1  0  0  0  0
 28 35  1  0  0  0  0
 29 30  1  0  0  0  0
 29 36  1  0  0  0  0
 29 37  1  0  0  0  0
 30 31  1  0  0  0  0
 30 38  1  0  0  0  0
 31 32  1  0  0  0  0
 31 39  1  0  0  0  0
 31 40  1  0  0  0  0
 32 33  1  0  0  0  0
 32 41  1  0  0  0  0
 32 42  1  0  0  0  0
 43 44  1  0  0  0  0
 43 45  1  0  0  0  0
 43 46  1  0  0  0  0
 46 47  1  0  0  0  0
 46 48  1  0  0  0  0
 46 49  1  0  0  0  0
 49 50  1  0  0  0  0
 49 51  1  0  0  0  0
 49 52  1  0  0  0  0
 52 53  2  0  0  0  0
 52 54  2  0  0  0  0
 52 55  1  0  0  0  0
 55 56  1  0  0  0  0
 55 57  1  0  0  0  0
 55 58  1  0  0  0  0
M  END
$$$$
