18652-1
 OpenBabel02232411163D
Structure written by MMmdl.
 55 56  0  0  0  0  0  0  0  0999 V2000
   23.2290   10.4880   28.9650 C   0  0  0  0  0  0  0  0  0  0  0  0
   23.5710   10.9610   30.3670 C   0  0  0  0  0  0  0  0  0  0  0  0
   24.0800   12.3960   30.4110 C   0  0  0  0  0  0  0  0  0  0  0  0
   22.3180   11.0680   31.1860 O   0  0  0  0  0  0  0  0  0  0  0  0
   21.6820    9.9540   31.5910 C   0  0  0  0  0  0  0  0  0  0  0  0
   22.1580    8.7370   31.2270 N   0  0  0  0  0  0  0  0  0  0  0  0
   21.4110    7.6270   31.5780 C   0  0  0  0  0  0  0  0  0  0  0  0
   20.2460    7.7100   32.3340 C   0  0  0  0  0  0  0  0  0  0  0  0
   19.7660    8.9840   32.7400 C   0  0  0  0  0  0  0  0  0  0  0  0
   18.6000    9.0670   33.4600 N   0  0  0  0  0  0  0  0  0  0  0  0
   20.4980   10.1570   32.3670 C   0  0  0  0  0  0  0  0  0  0  0  0
   20.1010   11.4720   32.6880 C   0  0  0  0  0  0  0  0  0  0  0  0
   19.8180   12.5730   32.9180 N   0  0  0  0  0  0  0  0  0  0  0  0
   21.9520    6.4250   31.0520 N   0  0  0  0  0  0  0  0  0  0  0  0
   21.2510    5.2050   30.9470 C   0  0  0  0  0  0  0  0  0  0  0  0
   20.1690    5.0240   31.4660 O   0  0  0  0  0  0  0  0  0  0  0  0
   21.9160    4.1700   30.0550 C   0  0  0  0  0  0  0  0  0  0  0  0
   23.2810    3.7160   30.4760 C   0  0  0  0  0  0  0  0  0  0  0  0
   24.4380    4.3870   29.9750 C   0  0  0  0  0  0  0  0  0  0  0  0
   24.1240    5.5200   29.2300 O   0  0  0  0  0  0  0  0  0  0  0  0
   25.1830    6.5010   29.0580 C   0  0  0  0  0  0  0  0  0  0  0  0
   25.7130    3.8770   30.1770 C   0  0  0  0  0  0  0  0  0  0  0  0
   25.9010    2.7130   30.9500 C   0  0  0  0  0  0  0  0  0  0  0  0
   27.5300    2.0820   31.0680 S   0  0  0  0  0  0  0  0  0  0  0  0
   27.4870    0.8380   31.8760 O   0  0  0  0  0  0  0  0  0  0  0  0
   28.4190    3.0870   31.6990 O   0  0  0  0  0  0  0  0  0  0  0  0
   28.0080    1.7450   29.4340 C   0  0  0  0  0  0  0  0  0  0  0  0
   24.7780    2.1170   31.5400 C   0  0  0  0  0  0  0  0  0  0  0  0
   23.4660    2.5990   31.2710 C   0  0  0  0  0  0  0  0  0  0  0  0
   25.0430    1.0710   32.3800 O   0  0  0  0  0  0  0  0  0  0  0  0
   23.9160    0.3480   32.9560 C   0  0  0  0  0  0  0  0  0  0  0  0
   22.8590    9.4360   28.9720 H   0  0  0  0  0  0  0  0  0  0  0  0
   22.4590   11.1370   28.4930 H   0  0  0  0  0  0  0  0  0  0  0  0
   24.1470   10.5260   28.3300 H   0  0  0  0  0  0  0  0  0  0  0  0
   24.2530   10.2540   30.8940 H   0  0  0  0  0  0  0  0  0  0  0  0
   24.2890   12.7190   31.4530 H   0  0  0  0  0  0  0  0  0  0  0  0
   25.0250   12.4600   29.8180 H   0  0  0  0  0  0  0  0  0  0  0  0
   23.3420   13.0990   29.9570 H   0  0  0  0  0  0  0  0  0  0  0  0
   19.6790    6.8160   32.6010 H   0  0  0  0  0  0  0  0  0  0  0  0
   18.0820    8.2110   33.7370 H   0  0  0  0  0  0  0  0  0  0  0  0
   18.2040    9.9660   33.7340 H   0  0  0  0  0  0  0  0  0  0  0  0
   22.8660    6.5120   30.5510 H   0  0  0  0  0  0  0  0  0  0  0  0
   21.2430    3.2750   29.9920 H   0  0  0  0  0  0  0  0  0  0  0  0
   21.9930    4.6280   29.0260 H   0  0  0  0  0  0  0  0  0  0  0  0
   25.8980    6.1330   28.2920 H   0  0  0  0  0  0  0  0  0  0  0  0
   24.6140    7.3880   28.6980 H   0  0  0  0  0  0  0  0  0  0  0  0
   25.6840    6.7110   30.0280 H   0  0  0  0  0  0  0  0  0  0  0  0
   26.5720    4.3790   29.7190 H   0  0  0  0  0  0  0  0  0  0  0  0
   28.0740    2.6720   28.8040 H   0  0  0  0  0  0  0  0  0  0  0  0
   29.0140    1.2540   29.3730 H   0  0  0  0  0  0  0  0  0  0  0  0
   27.2850    1.0660   28.9120 H   0  0  0  0  0  0  0  0  0  0  0  0
   22.5960    2.0730   31.6680 H   0  0  0  0  0  0  0  0  0  0  0  0
   23.3240    1.0160   33.6180 H   0  0  0  0  0  0  0  0  0  0  0  0
   23.3000   -0.1060   32.1500 H   0  0  0  0  0  0  0  0  0  0  0  0
   24.4350   -0.4430   33.5500 H   0  0  0  0  0  0  0  0  0  0  0  0
  1  2  1  0  0  0  0
  1 32  1  0  0  0  0
  1 33  1  0  0  0  0
  1 34  1  0  0  0  0
  2  3  1  0  0  0  0
  2  4  1  0  0  0  0
  2 35  1  0  0  0  0
  3 36  1  0  0  0  0
  3 37  1  0  0  0  0
  3 38  1  0  0  0  0
  4  5  1  0  0  0  0
  5 11  2  0  0  0  0
  5  6  1  0  0  0  0
  6  7  2  0  0  0  0
  7  8  1  0  0  0  0
  7 14  1  0  0  0  0
  8  9  2  0  0  0  0
  8 39  1  0  0  0  0
  9 10  1  0  0  0  0
  9 11  1  0  0  0  0
 10 40  1  0  0  0  0
 10 41  1  0  0  0  0
 11 12  1  0  0  0  0
 12 13  3  0  0  0  0
 14 15  1  0  0  0  0
 14 42  1  0  0  0  0
 15 16  2  0  0  0  0
 15 17  1  0  0  0  0
 17 18  1  0  0  0  0
 17 43  1  0  0  0  0
 17 44  1  0  0  0  0
 18 29  2  0  0  0  0
 18 19  1  0  0  0  0
 19 20  1  0  0  0  0
 19 22  2  0  0  0  0
 20 21  1  0  0  0  0
 21 45  1  0  0  0  0
 21 46  1  0  0  0  0
 21 47  1  0  0  0  0
 22 23  1  0  0  0  0
 22 48  1  0  0  0  0
 23 24  1  0  0  0  0
 23 28  2  0  0  0  0
 24 25  2  0  0  0  0
 24 26  2  0  0  0  0
 24 27  1  0  0  0  0
 27 49  1  0  0  0  0
 27 50  1  0  0  0  0
 27 51  1  0  0  0  0
 28 29  1  0  0  0  0
 28 30  1  0  0  0  0
 29 52  1  0  0  0  0
 30 31  1  0  0  0  0
 31 53  1  0  0  0  0
 31 54  1  0  0  0  0
 31 55  1  0  0  0  0
M  END
$$$$
