49
                    3D
 Schrodinger Suite 2022-3.
 41 43  0  0  1  0  0  0  0  0999 V2000
    3.6420  -48.5510    7.4190 O   0  0  0  0  0  0  0  0  0  0  0  0
    3.2780  -49.5960    6.8660 C   0  0  0  0  0  0  0  0  0  0  0  0
    4.0040  -50.4810    6.3760 O   0  5  0  0  0  0  0  0  0  0  0  0
    1.7620  -49.8570    6.7630 C   0  0  0  0  0  0  0  0  0  0  0  0
   -0.1400  -51.1100    6.9420 C   0  0  0  0  0  0  0  0  0  0  0  0
   -1.0980  -52.1120    7.1880 C   0  0  0  0  0  0  0  0  0  0  0  0
   -2.4120  -51.8550    6.8340 C   0  0  0  0  0  0  0  0  0  0  0  0
   -2.7870  -50.6240    6.2430 C   0  0  0  0  0  0  0  0  0  0  0  0
   -1.8310  -49.6500    6.0120 C   0  0  0  0  0  0  0  0  0  0  0  0
   -0.4810  -49.8360    6.3470 C   0  0  0  0  0  0  0  0  0  0  0  0
    0.7350  -49.0610    6.2610 C   0  0  0  0  0  0  0  0  0  0  0  0
    0.8620  -47.6730    5.7380 C   0  0  0  0  0  0  0  0  0  0  0  0
    0.7300  -46.5970    6.8320 C   0  0  0  0  0  0  0  0  0  0  0  0
   -0.6230  -46.5420    7.5390 C   0  0  0  0  0  0  0  0  0  0  0  0
   -1.5010  -45.8210    6.5960 O   0  0  0  0  0  0  0  0  0  0  0  0
   -2.7920  -45.5920    6.9550 C   0  0  0  0  0  0  0  0  0  0  0  0
   -3.5240  -44.8660    5.9860 C   0  0  0  0  0  0  0  0  0  0  0  0
   -4.8530  -44.5190    6.2230 C   0  0  0  0  0  0  0  0  0  0  0  0
   -5.6610  -43.8160    5.1840 C   0  0  0  0  0  0  0  0  0  0  0  0
   -5.4280  -44.9120    7.4490 C   0  0  0  0  0  0  0  0  0  0  0  0
   -7.0810  -44.5110    7.7690 Cl  0  0  0  0  0  0  0  0  0  0  0  0
   -4.7240  -45.6460    8.4010 C   0  0  0  0  0  0  0  0  0  0  0  0
   -3.3940  -45.9960    8.1630 C   0  0  0  0  0  0  0  0  0  0  0  0
   -0.8190  -53.0620    7.6460 H   0  0  0  0  0  0  0  0  0  0  0  0
   -3.1830  -52.6080    7.0100 H   0  0  0  0  0  0  0  0  0  0  0  0
   -3.8330  -50.4590    5.9780 H   0  0  0  0  0  0  0  0  0  0  0  0
   -2.3210  -48.1610    5.2870 Cl  0  0  0  0  0  0  0  0  0  0  0  0
    0.0910  -47.4740    4.9540 H   0  0  0  0  0  0  0  0  0  0  0  0
    1.8670  -47.5430    5.2580 H   0  0  0  0  0  0  0  0  0  0  0  0
    0.9050  -45.5970    6.3660 H   0  0  0  0  0  0  0  0  0  0  0  0
    1.5050  -46.7950    7.6120 H   0  0  0  0  0  0  0  0  0  0  0  0
   -0.5800  -45.9190    8.4580 H   0  0  0  0  0  0  0  0  0  0  0  0
   -1.0660  -47.5440    7.7140 H   0  0  0  0  0  0  0  0  0  0  0  0
   -3.0530  -44.5900    5.0480 H   0  0  0  0  0  0  0  0  0  0  0  0
   -6.4370  -44.5170    4.7860 H   0  0  0  0  0  0  0  0  0  0  0  0
   -6.1860  -42.9300    5.6100 H   0  0  0  0  0  0  0  0  0  0  0  0
   -5.0200  -43.4750    4.3370 H   0  0  0  0  0  0  0  0  0  0  0  0
   -2.8680  -46.5880    8.9080 H   0  0  0  0  0  0  0  0  0  0  0  0
   -5.2140  -45.9550    9.3290 H   0  0  0  0  0  0  0  0  0  0  0  0
    1.2360  -51.0920    7.1870 N   0  0  0  0  0  0  0  0  0  0  0  0
    1.7410  -51.8770    7.5860 H   0  0  0  0  0  0  0  0  0  0  0  0
  1  2  2  0  0  0  0
  2  3  1  0  0  0  0
  2  4  1  0  0  0  0
  4 11  2  0  0  0  0
  4 40  1  0  0  0  0
  5  6  1  0  0  0  0
  5 10  2  0  0  0  0
  5 40  1  0  0  0  0
  6  7  2  0  0  0  0
  6 24  1  0  0  0  0
  7  8  1  0  0  0  0
  7 25  1  0  0  0  0
  8  9  2  0  0  0  0
  8 26  1  0  0  0  0
  9 10  1  0  0  0  0
  9 27  1  0  0  0  0
 10 11  1  0  0  0  0
 11 12  1  0  0  0  0
 12 28  1  0  0  0  0
 12 29  1  0  0  0  0
 12 13  1  0  0  0  0
 13 14  1  0  0  0  0
 13 30  1  0  0  0  0
 13 31  1  0  0  0  0
 14 15  1  0  0  0  0
 14 32  1  0  0  0  0
 14 33  1  0  0  0  0
 15 16  1  0  0  0  0
 16 17  1  0  0  0  0
 16 23  2  0  0  0  0
 17 18  2  0  0  0  0
 17 34  1  0  0  0  0
 18 19  1  0  0  0  0
 18 20  1  0  0  0  0
 19 35  1  0  0  0  0
 19 36  1  0  0  0  0
 19 37  1  0  0  0  0
 20 21  1  0  0  0  0
 20 22  2  0  0  0  0
 22 23  1  0  0  0  0
 22 39  1  0  0  0  0
 23 38  1  0  0  0  0
 40 41  1  0  0  0  0
M  CHG  1   3  -1
M  END
$$$$
