56
                    3D
 Schrodinger Suite 2022-3.
 47 49  0  0  1  0  0  0  0  0999 V2000
    3.5360  -48.5480    7.2270 O   0  0  0  0  0  0  0  0  0  0  0  0
    3.0910  -49.3580    6.4010 C   0  0  0  0  0  0  0  0  0  0  0  0
    3.7370  -49.9980    5.5510 O   0  5  0  0  0  0  0  0  0  0  0  0
    1.5750  -49.6380    6.4030 C   0  0  0  0  0  0  0  0  0  0  0  0
   -0.3370  -50.8860    6.5970 C   0  0  0  0  0  0  0  0  0  0  0  0
   -1.3040  -51.8800    6.8310 C   0  0  0  0  0  0  0  0  0  0  0  0
   -2.6210  -51.5810    6.5200 C   0  0  0  0  0  0  0  0  0  0  0  0
   -2.9830  -50.3210    5.9870 C   0  0  0  0  0  0  0  0  0  0  0  0
   -2.0370  -49.3320    5.7590 C   0  0  0  0  0  0  0  0  0  0  0  0
   -0.6900  -49.5910    6.0650 C   0  0  0  0  0  0  0  0  0  0  0  0
    0.5290  -48.8230    5.9740 C   0  0  0  0  0  0  0  0  0  0  0  0
    0.5920  -47.4060    5.5260 C   0  0  0  0  0  0  0  0  0  0  0  0
    0.5630  -46.4130    6.7040 C   0  0  0  0  0  0  0  0  0  0  0  0
   -0.7680  -46.3910    7.4510 C   0  0  0  0  0  0  0  0  0  0  0  0
   -1.6840  -45.7410    6.4920 O   0  0  0  0  0  0  0  0  0  0  0  0
   -2.9570  -45.4770    6.8800 C   0  0  0  0  0  0  0  0  0  0  0  0
   -3.5260  -45.8470    8.1100 C   0  0  0  0  0  0  0  0  0  0  0  0
   -4.8570  -45.5010    8.3790 C   0  0  0  0  0  0  0  0  0  0  0  0
   -5.4940  -45.8560    9.6810 C   0  0  0  0  0  0  0  0  0  0  0  0
   -5.5870  -44.8130    7.3980 C   0  0  0  0  0  0  0  0  0  0  0  0
   -7.2500  -44.4580    7.7000 Cl  0  0  0  0  0  0  0  0  0  0  0  0
   -5.0290  -44.4380    6.1600 C   0  0  0  0  0  0  0  0  0  0  0  0
   -5.8590  -43.7590    5.1220 C   0  0  0  0  0  0  0  0  0  0  0  0
   -3.6990  -44.7680    5.9090 C   0  0  0  0  0  0  0  0  0  0  0  0
   -1.0390  -52.8530    7.2460 H   0  0  0  0  0  0  0  0  0  0  0  0
   -3.4020  -52.3240    6.6890 H   0  0  0  0  0  0  0  0  0  0  0  0
   -4.0330  -50.1360    5.7560 H   0  0  0  0  0  0  0  0  0  0  0  0
   -2.3420  -48.3680    5.3490 H   0  0  0  0  0  0  0  0  0  0  0  0
   -0.2910  -47.1870    4.8710 H   0  0  0  0  0  0  0  0  0  0  0  0
    1.5220  -47.2190    4.9370 H   0  0  0  0  0  0  0  0  0  0  0  0
    0.7500  -45.3860    6.3130 H   0  0  0  0  0  0  0  0  0  0  0  0
    1.3600  -46.6860    7.4380 H   0  0  0  0  0  0  0  0  0  0  0  0
   -0.7300  -45.7440    8.3530 H   0  0  0  0  0  0  0  0  0  0  0  0
   -1.1750  -47.4040    7.6540 H   0  0  0  0  0  0  0  0  0  0  0  0
   -2.9700  -46.4140    8.8520 H   0  0  0  0  0  0  0  0  0  0  0  0
   -5.9140  -44.9440   10.1720 H   0  0  0  0  0  0  0  0  0  0  0  0
   -6.3400  -46.5660    9.5100 H   0  0  0  0  0  0  0  0  0  0  0  0
   -4.7700  -46.3410   10.3730 H   0  0  0  0  0  0  0  0  0  0  0  0
   -5.2280  -43.4050    4.2740 H   0  0  0  0  0  0  0  0  0  0  0  0
   -6.6180  -44.4830    4.7310 H   0  0  0  0  0  0  0  0  0  0  0  0
   -6.4050  -42.8850    5.5460 H   0  0  0  0  0  0  0  0  0  0  0  0
   -3.2350  -44.5000    4.9660 H   0  0  0  0  0  0  0  0  0  0  0  0
    1.7660  -52.0150    7.4040 C   0  0  0  0  0  0  0  0  0  0  0  0
    1.5300  -52.9740    6.8620 H   0  0  0  0  0  0  0  0  0  0  0  0
    2.8770  -51.8730    7.3950 H   0  0  0  0  0  0  0  0  0  0  0  0
    1.4320  -52.1440    8.4730 H   0  0  0  0  0  0  0  0  0  0  0  0
    1.0580  -50.8900    6.7810 N   0  0  0  0  0  0  0  0  0  0  0  0
  1  2  2  0  0  0  0
  2  3  1  0  0  0  0
  2  4  1  0  0  0  0
  4 11  2  0  0  0  0
  4 47  1  0  0  0  0
  5  6  1  0  0  0  0
  5 10  2  0  0  0  0
  5 47  1  0  0  0  0
  6  7  2  0  0  0  0
  6 25  1  0  0  0  0
  7  8  1  0  0  0  0
  7 26  1  0  0  0  0
  8  9  2  0  0  0  0
  8 27  1  0  0  0  0
  9 10  1  0  0  0  0
  9 28  1  0  0  0  0
 10 11  1  0  0  0  0
 11 12  1  0  0  0  0
 12 29  1  0  0  0  0
 12 30  1  0  0  0  0
 12 13  1  0  0  0  0
 13 14  1  0  0  0  0
 13 31  1  0  0  0  0
 13 32  1  0  0  0  0
 14 15  1  0  0  0  0
 14 33  1  0  0  0  0
 14 34  1  0  0  0  0
 15 16  1  0  0  0  0
 16 17  1  0  0  0  0
 16 24  2  0  0  0  0
 17 18  2  0  0  0  0
 17 35  1  0  0  0  0
 18 19  1  0  0  0  0
 18 20  1  0  0  0  0
 19 36  1  0  0  0  0
 19 37  1  0  0  0  0
 19 38  1  0  0  0  0
 20 21  1  0  0  0  0
 20 22  2  0  0  0  0
 22 23  1  0  0  0  0
 22 24  1  0  0  0  0
 23 39  1  0  0  0  0
 23 40  1  0  0  0  0
 23 41  1  0  0  0  0
 24 42  1  0  0  0  0
 43 44  1  0  0  0  0
 43 45  1  0  0  0  0
 43 46  1  0  0  0  0
 43 47  1  0  0  0  0
M  CHG  1   3  -1
M  END
$$$$
