CAT-17h
 OpenBabel02232411143D
Structure written by MMmdl.
 42 45  0  0  1  0  0  0  0  0999 V2000
   11.6180   -2.3980    1.2810 C   0  0  0  0  0  0  0  0  0  0  0  0
   12.9670   -2.3280    0.6800 N   0  0  0  0  0  0  0  0  0  0  0  0
   14.1530   -2.3330    1.4050 C   0  0  0  0  0  0  0  0  0  0  0  0
   14.2970   -2.4610    2.7550 N   0  0  0  0  0  0  0  0  0  0  0  0
   15.2480   -2.2430    0.5340 N   0  3  0  0  0  0  0  0  0  0  0  0
   14.8050   -2.5500   -0.8770 C   0  0  1  0  0  0  0  0  0  0  0  0
   15.4110   -1.5250   -1.8110 C   0  0  0  0  0  0  0  0  0  0  0  0
   16.4030   -1.8940   -2.7270 C   0  0  0  0  0  0  0  0  0  0  0  0
   16.8940   -0.9460   -3.6300 C   0  0  0  0  0  0  0  0  0  0  0  0
   16.4220    0.3670   -3.6070 C   0  0  0  0  0  0  0  0  0  0  0  0
   15.4780    0.7610   -2.6420 C   0  0  0  0  0  0  0  0  0  0  0  0
   15.0300    2.1650   -2.5510 C   0  0  0  0  0  0  0  0  0  0  0  0
   15.0290    2.8280   -1.3030 C   0  0  0  0  0  0  0  0  0  0  0  0
   14.5800    4.0990   -1.1460 N   0  0  0  0  0  0  0  0  0  0  0  0
   14.1240    4.7650   -2.2340 C   0  0  0  0  0  0  0  0  0  0  0  0
   14.1480    4.1810   -3.5170 C   0  0  0  0  0  0  0  0  0  0  0  0
   13.6240    5.0920   -4.8620 Cl  0  0  0  0  0  0  0  0  0  0  0  0
   14.5950    2.8690   -3.6850 C   0  0  0  0  0  0  0  0  0  0  0  0
   14.9670   -0.1950   -1.7510 C   0  0  0  0  0  0  0  0  0  0  0  0
   15.0270   -4.0030   -1.2710 C   0  0  0  0  0  0  0  0  0  0  0  0
   16.2370   -4.7770   -0.7760 C   0  0  0  0  0  0  0  0  0  0  0  0
   14.8630   -5.1250   -0.2510 C   0  0  0  0  0  0  0  0  0  0  0  0
   13.2520   -2.3880   -0.7720 C   0  0  0  0  0  0  0  0  0  0  0  0
   12.3890   -2.3330   -1.5870 O   0  0  0  0  0  0  0  0  0  0  0  0
   11.0280   -3.2060    0.7690 H   0  0  0  0  0  0  0  0  0  0  0  0
   11.6790   -2.6460    2.3730 H   0  0  0  0  0  0  0  0  0  0  0  0
   11.1040   -1.4080    1.1520 H   0  0  0  0  0  0  0  0  0  0  0  0
   13.5790   -2.0780    3.4210 H   0  0  0  0  0  0  0  0  0  0  0  0
   16.1790   -2.5970    0.8890 H   0  0  0  0  0  0  0  0  0  0  0  0
   16.7930   -2.9140   -2.7370 H   0  0  0  0  0  0  0  0  0  0  0  0
   17.6580   -1.2400   -4.3580 H   0  0  0  0  0  0  0  0  0  0  0  0
   16.7940    1.0870   -4.3410 H   0  0  0  0  0  0  0  0  0  0  0  0
   15.4030    2.3180   -0.4030 H   0  0  0  0  0  0  0  0  0  0  0  0
   13.7180    5.7780   -2.0750 H   0  0  0  0  0  0  0  0  0  0  0  0
   14.5990    2.3940   -4.6740 H   0  0  0  0  0  0  0  0  0  0  0  0
   14.2300    0.0940   -1.0010 H   0  0  0  0  0  0  0  0  0  0  0  0
   14.6870   -4.2010   -2.3040 H   0  0  0  0  0  0  0  0  0  0  0  0
   16.7520   -5.4380   -1.4720 H   0  0  0  0  0  0  0  0  0  0  0  0
   16.9530   -4.2860   -0.1160 H   0  0  0  0  0  0  0  0  0  0  0  0
   14.6220   -4.8810    0.7910 H   0  0  0  0  0  0  0  0  0  0  0  0
   14.3720   -6.0520   -0.5770 H   0  0  0  0  0  0  0  0  0  0  0  0
   15.2760   -2.3930    3.1570 H   0  0  0  0  0  0  0  0  0  0  0  0
  1  2  1  0  0  0  0
  1 25  1  0  0  0  0
  1 26  1  0  0  0  0
  1 27  1  0  0  0  0
  2  3  1  0  0  0  0
  2 23  1  0  0  0  0
  3  4  1  0  0  0  0
  3  5  2  0  0  0  0
  4 28  1  0  0  0  0
  4 42  1  0  0  0  0
  5  6  1  0  0  0  0
  5 29  1  0  0  0  0
  6  7  1  6  0  0  0
  6 20  1  0  0  0  0
  6 23  1  0  0  0  0
  7  8  2  0  0  0  0
  7 19  1  0  0  0  0
  8  9  1  0  0  0  0
  8 30  1  0  0  0  0
  9 10  2  0  0  0  0
  9 31  1  0  0  0  0
 10 11  1  0  0  0  0
 10 32  1  0  0  0  0
 11 12  1  0  0  0  0
 11 19  2  0  0  0  0
 12 13  2  0  0  0  0
 12 18  1  0  0  0  0
 13 14  1  0  0  0  0
 13 33  1  0  0  0  0
 14 15  2  0  0  0  0
 15 16  1  0  0  0  0
 15 34  1  0  0  0  0
 16 17  1  0  0  0  0
 16 18  2  0  0  0  0
 18 35  1  0  0  0  0
 19 36  1  0  0  0  0
 20 21  1  0  0  0  0
 20 22  1  0  0  0  0
 20 37  1  0  0  0  0
 21 22  1  0  0  0  0
 21 38  1  0  0  0  0
 21 39  1  0  0  0  0
 22 40  1  0  0  0  0
 22 41  1  0  0  0  0
 23 24  2  0  0  0  0
M  CHG  1   5   1
M  END
$$$$
