30
 OpenBabel02232411153D
Structure written by MMmdl.
 51 54  0  0  0  0  0  0  0  0999 V2000
    1.9460   28.9230    6.6910 C   0  0  0  0  0  0  0  0  0  0  0  0
   -1.5430   31.4600    7.9490 C   0  0  0  0  0  0  0  0  0  0  0  0
    0.1600   26.0690    8.9870 C   0  0  0  0  0  0  0  0  0  0  0  0
   -0.7230   25.3250    9.9950 C   0  0  0  0  0  0  0  0  0  0  0  0
   -0.6290   23.8120    9.6960 C   0  0  0  0  0  0  0  0  0  0  0  0
   -1.4240   22.9960   10.7250 C   0  0  0  0  0  0  0  0  0  0  0  0
   -0.9890   23.3120   12.1660 C   0  0  0  0  0  0  0  0  0  0  0  0
   -1.0880   24.8170   12.4610 C   0  0  0  0  0  0  0  0  0  0  0  0
   -0.2910   25.6410   11.4400 C   0  0  0  0  0  0  0  0  0  0  0  0
    4.6540   25.3730    7.3820 C   0  0  0  0  0  0  0  0  0  0  0  0
    5.4970   25.0450    6.3110 C   0  0  0  0  0  0  0  0  0  0  0  0
    5.5320   25.8860    5.1920 C   0  0  0  0  0  0  0  0  0  0  0  0
    4.7440   27.0260    5.1420 C   0  0  0  0  0  0  0  0  0  0  0  0
    1.2870   27.9620    7.4500 N   0  0  0  0  0  0  0  0  0  0  0  0
    0.0980   28.2730    8.0320 C   0  0  0  0  0  0  0  0  0  0  0  0
   -0.5340   27.3720    8.7930 O   0  0  0  0  0  0  0  0  0  0  0  0
   -0.4650   29.5660    7.8580 C   0  0  0  0  0  0  0  0  0  0  0  0
   -1.6170   30.1880    8.3510 N   0  0  0  0  0  0  0  0  0  0  0  0
   -0.3460   31.7230    7.1930 N   0  0  0  0  0  0  0  0  0  0  0  0
    0.3360   30.5150    7.1020 C   0  0  0  0  0  0  0  0  0  0  0  0
    1.5250   30.2230    6.4790 N   0  0  0  0  0  0  0  0  0  0  0  0
    3.1320   28.5480    6.0600 N   0  0  0  0  0  0  0  0  0  0  0  0
    3.8770   27.3450    6.2150 C   0  0  0  0  0  0  0  0  0  0  0  0
    3.8480   26.5140    7.3470 C   0  0  0  0  0  0  0  0  0  0  0  0
   -2.2590   32.2500    8.1570 H   0  0  0  0  0  0  0  0  0  0  0  0
    1.1780   26.2750    9.3840 H   0  0  0  0  0  0  0  0  0  0  0  0
    0.1890   25.5770    7.9940 H   0  0  0  0  0  0  0  0  0  0  0  0
   -1.7830   25.6570    9.8680 H   0  0  0  0  0  0  0  0  0  0  0  0
   -1.0340   23.6100    8.6800 H   0  0  0  0  0  0  0  0  0  0  0  0
    0.4420   23.4950    9.7300 H   0  0  0  0  0  0  0  0  0  0  0  0
   -2.5050   23.2350   10.6170 H   0  0  0  0  0  0  0  0  0  0  0  0
   -1.2700   21.9080   10.5350 H   0  0  0  0  0  0  0  0  0  0  0  0
   -1.6410   22.7520   12.8760 H   0  0  0  0  0  0  0  0  0  0  0  0
    0.0650   22.9790   12.3130 H   0  0  0  0  0  0  0  0  0  0  0  0
   -2.1580   25.1280   12.4460 H   0  0  0  0  0  0  0  0  0  0  0  0
   -0.6810   25.0190   13.4800 H   0  0  0  0  0  0  0  0  0  0  0  0
    0.7950   25.4090   11.5670 H   0  0  0  0  0  0  0  0  0  0  0  0
   -0.4430   26.7250   11.6450 H   0  0  0  0  0  0  0  0  0  0  0  0
    4.6150   24.7440    8.2830 H   0  0  0  0  0  0  0  0  0  0  0  0
    6.1780   25.6790    4.3310 H   0  0  0  0  0  0  0  0  0  0  0  0
    4.8140   27.6760    4.2740 H   0  0  0  0  0  0  0  0  0  0  0  0
   -0.1030   32.6120    6.7320 H   0  0  0  0  0  0  0  0  0  0  0  0
    3.5870   29.2450    5.4170 H   0  0  0  0  0  0  0  0  0  0  0  0
    3.2070   26.7460    8.2000 H   0  0  0  0  0  0  0  0  0  0  0  0
    6.5270   23.6630    6.4280 S   0  0  0  0  0  0  0  0  0  0  0  0
    7.2970   23.8340    7.6670 O   0  0  0  0  0  0  0  0  0  0  0  0
    5.7050   22.4270    6.4450 O   0  0  0  0  0  0  0  0  0  0  0  0
    7.6160   23.6340    5.0840 C   0  0  0  0  0  0  0  0  0  0  0  0
    8.3880   22.8240    5.1880 H   0  0  0  0  0  0  0  0  0  0  0  0
    7.1140   23.4570    4.0960 H   0  0  0  0  0  0  0  0  0  0  0  0
    8.1980   24.5910    4.9740 H   0  0  0  0  0  0  0  0  0  0  0  0
  1 14  2  0  0  0  0
  1 21  1  0  0  0  0
  1 22  1  0  0  0  0
  2 18  2  0  0  0  0
  2 19  1  0  0  0  0
  2 25  1  0  0  0  0
  3  4  1  0  0  0  0
  3 16  1  0  0  0  0
  3 26  1  0  0  0  0
  3 27  1  0  0  0  0
  4  5  1  0  0  0  0
  4  9  1  0  0  0  0
  4 28  1  0  0  0  0
  5  6  1  0  0  0  0
  5 29  1  0  0  0  0
  5 30  1  0  0  0  0
  6  7  1  0  0  0  0
  6 31  1  0  0  0  0
  6 32  1  0  0  0  0
  7  8  1  0  0  0  0
  7 33  1  0  0  0  0
  7 34  1  0  0  0  0
  8  9  1  0  0  0  0
  8 35  1  0  0  0  0
  8 36  1  0  0  0  0
  9 37  1  0  0  0  0
  9 38  1  0  0  0  0
 10 11  2  0  0  0  0
 10 24  1  0  0  0  0
 10 39  1  0  0  0  0
 11 12  1  0  0  0  0
 11 45  1  0  0  0  0
 12 13  2  0  0  0  0
 12 40  1  0  0  0  0
 13 23  1  0  0  0  0
 13 41  1  0  0  0  0
 14 15  1  0  0  0  0
 15 16  1  0  0  0  0
 15 17  2  0  0  0  0
 17 18  1  0  0  0  0
 17 20  1  0  0  0  0
 19 20  1  0  0  0  0
 19 42  1  0  0  0  0
 20 21  2  0  0  0  0
 22 23  1  0  0  0  0
 22 43  1  0  0  0  0
 23 24  2  0  0  0  0
 24 44  1  0  0  0  0
 45 46  2  0  0  0  0
 45 47  2  0  0  0  0
 45 48  1  0  0  0  0
 48 49  1  0  0  0  0
 48 50  1  0  0  0  0
 48 51  1  0  0  0  0
M  END
$$$$
