p38a_2t
 OpenBabel02232411163D
Structure written by MMmdl.
 47 50  0  0  0  0  0  0  0  0999 V2000
   38.2910   36.5570   17.1420 C   0  0  0  0  0  0  0  0  0  0  0  0
   34.4980   35.0100   21.1420 C   0  0  0  0  0  0  0  0  0  0  0  0
   37.5030   36.0910   18.1910 C   0  0  0  0  0  0  0  0  0  0  0  0
   33.9250   39.0090   23.8300 C   0  0  0  0  0  0  0  0  0  0  0  0
   34.6350   37.8820   21.4090 C   0  0  0  0  0  0  0  0  0  0  0  0
   35.0530   37.2640   20.1790 C   0  0  0  0  0  0  0  0  0  0  0  0
   37.6490   36.7270   15.9080 C   0  0  0  0  0  0  0  0  0  0  0  0
   36.3000   36.4340   15.6930 C   0  0  0  0  0  0  0  0  0  0  0  0
   35.5330   35.9530   16.7590 C   0  0  0  0  0  0  0  0  0  0  0  0
   34.1850   37.0820   22.4980 C   0  0  0  0  0  0  0  0  0  0  0  0
   34.6620   39.2890   21.6200 C   0  0  0  0  0  0  0  0  0  0  0  0
   35.0130   35.9150   20.0830 C   0  0  0  0  0  0  0  0  0  0  0  0
   36.1420   35.7700   18.0040 C   0  0  0  0  0  0  0  0  0  0  0  0
   38.0280   35.9440   19.4000 F   0  0  0  0  0  0  0  0  0  0  0  0
   35.4210   35.1200   19.0140 O   0  0  0  0  0  0  0  0  0  0  0  0
   34.3310   39.8650   22.7850 N   0  0  0  0  0  0  0  0  0  0  0  0
   34.4250   33.8040   21.0750 O   0  0  0  0  0  0  0  0  0  0  0  0
   34.0830   35.6820   22.3530 N   0  0  0  0  0  0  0  0  0  0  0  0
   33.8470   37.6310   23.7040 N   0  0  0  0  0  0  0  0  0  0  0  0
   33.5770   39.5680   25.0320 N   0  0  0  0  0  0  0  0  0  0  0  0
   39.3450   36.8150   17.2830 H   0  0  0  0  0  0  0  0  0  0  0  0
   35.4000   37.9090   19.3690 H   0  0  0  0  0  0  0  0  0  0  0  0
   35.8330   36.5900   14.7180 H   0  0  0  0  0  0  0  0  0  0  0  0
   34.4690   35.7380   16.6140 H   0  0  0  0  0  0  0  0  0  0  0  0
   34.9620   39.9580   20.7970 H   0  0  0  0  0  0  0  0  0  0  0  0
   33.6470   40.5940   25.1680 H   0  0  0  0  0  0  0  0  0  0  0  0
   38.3520   37.2320   14.8980 F   0  0  0  0  0  0  0  0  0  0  0  0
   33.1110   40.4390   28.1100 C   0  0  0  0  0  0  0  0  0  0  0  0
   32.2540   39.6260   27.1310 C   0  0  0  0  0  0  0  0  0  0  0  0
   33.0790   38.7380   26.1790 C   0  0  0  0  0  0  0  0  0  0  0  0
   34.2360   38.0350   26.9180 C   0  0  0  0  0  0  0  0  0  0  0  0
   35.0080   38.9900   27.8290 C   0  0  0  0  0  0  0  0  0  0  0  0
   34.1160   39.6390   28.7660 O   0  0  0  0  0  0  0  0  0  0  0  0
   32.4990   40.8050   28.9650 H   0  0  0  0  0  0  0  0  0  0  0  0
   33.6180   41.2790   27.5850 H   0  0  0  0  0  0  0  0  0  0  0  0
   31.6250   40.3310   26.5330 H   0  0  0  0  0  0  0  0  0  0  0  0
   31.5650   38.9550   27.7030 H   0  0  0  0  0  0  0  0  0  0  0  0
   32.3930   37.9480   25.7510 H   0  0  0  0  0  0  0  0  0  0  0  0
   33.7900   37.2060   27.5250 H   0  0  0  0  0  0  0  0  0  0  0  0
   34.9360   37.5720   26.1810 H   0  0  0  0  0  0  0  0  0  0  0  0
   35.7000   38.4420   28.5080 H   0  0  0  0  0  0  0  0  0  0  0  0
   35.5380   39.7710   27.2370 H   0  0  0  0  0  0  0  0  0  0  0  0
   33.5600   34.8520   23.4840 C   0  0  0  0  0  0  0  0  0  0  0  0
   33.1740   35.5110   24.3280 H   0  0  0  0  0  0  0  0  0  0  0  0
   32.6800   34.2370   23.1220 H   0  0  0  0  0  0  0  0  0  0  0  0
   34.6130   33.9770   23.9990 C   0  0  0  0  0  0  0  0  0  0  0  0
   35.4520   33.2830   24.3850 N   0  0  0  0  0  0  0  0  0  0  0  0
  1  3  2  0  0  0  0
  1  7  1  0  0  0  0
  1 21  1  0  0  0  0
  2 12  1  0  0  0  0
  2 17  2  0  0  0  0
  2 18  1  0  0  0  0
  3 13  1  0  0  0  0
  3 14  1  0  0  0  0
  4 16  2  0  0  0  0
  4 19  1  0  0  0  0
  4 20  1  0  0  0  0
  5  6  1  0  0  0  0
  5 10  1  0  0  0  0
  5 11  2  0  0  0  0
  6 12  2  0  0  0  0
  6 22  1  0  0  0  0
  7  8  2  0  0  0  0
  7 27  1  0  0  0  0
  8  9  1  0  0  0  0
  8 23  1  0  0  0  0
  9 13  2  0  0  0  0
  9 24  1  0  0  0  0
 10 18  1  0  0  0  0
 10 19  2  0  0  0  0
 11 16  1  0  0  0  0
 11 25  1  0  0  0  0
 12 15  1  0  0  0  0
 13 15  1  0  0  0  0
 18 43  1  0  0  0  0
 20 26  1  0  0  0  0
 20 30  1  0  0  0  0
 28 29  1  0  0  0  0
 28 33  1  0  0  0  0
 28 34  1  0  0  0  0
 28 35  1  0  0  0  0
 29 30  1  0  0  0  0
 29 36  1  0  0  0  0
 29 37  1  0  0  0  0
 30 31  1  0  0  0  0
 30 38  1  0  0  0  0
 31 32  1  0  0  0  0
 31 39  1  0  0  0  0
 31 40  1  0  0  0  0
 32 33  1  0  0  0  0
 32 41  1  0  0  0  0
 32 42  1  0  0  0  0
 43 44  1  0  0  0  0
 43 45  1  0  0  0  0
 43 46  1  0  0  0  0
 46 47  3  0  0  0  0
M  END
$$$$
