23483
 OpenBabel02232411173D
Structure written by MMmdl.
 57 60  0  0  0  0  0  0  0  0999 V2000
   42.4990   17.9720   12.6440 O   0  0  0  0  0  0  0  0  0  0  0  0
   41.3560   17.7090   13.0350 C   0  0  0  0  0  0  0  0  0  0  0  0
   40.3180   18.3570   12.7770 O   0  5  0  0  0  0  0  0  0  0  0  0
   41.1420   16.4560   13.9350 C   0  0  0  0  0  0  0  0  0  0  0  0
   42.4970   15.9050   13.9760 O   0  0  0  0  0  0  0  0  0  0  0  0
   42.6870   14.9520   14.9260 C   0  0  0  0  0  0  0  0  0  0  0  0
   42.0940   13.6320   14.8720 C   0  0  0  0  0  0  0  0  0  0  0  0
   40.9290   13.1230   13.4520 Br  0  0  0  0  0  0  0  0  0  0  0  0
   42.4800   12.7900   15.8820 C   0  0  0  0  0  0  0  0  0  0  0  0
   42.0480   11.4360   16.1620 C   0  0  0  0  0  0  0  0  0  0  0  0
   42.9040   10.4660   16.7340 C   0  0  0  0  0  0  0  0  0  0  0  0
   42.4500    9.1630   16.9060 C   0  0  0  0  0  0  0  0  0  0  0  0
   41.1770    8.7560   16.4760 C   0  0  0  0  0  0  0  0  0  0  0  0
   40.3150    9.7130   15.9250 C   0  0  0  0  0  0  0  0  0  0  0  0
   38.9600    9.4630   15.5260 N   0  0  0  0  0  0  0  0  0  0  0  0
   38.5160    8.1020   15.1270 C   0  0  0  0  0  0  0  0  0  0  0  0
   36.9810    8.0380   15.3340 C   0  0  0  0  0  0  0  0  0  0  0  0
   36.4480    6.6530   14.9300 C   0  0  0  0  0  0  0  0  0  0  0  0
   36.7690    6.3850   13.4920 N   0  0  0  0  0  0  0  0  0  0  0  0
   35.7810    5.2780   12.6620 S   0  0  0  0  0  0  0  0  0  0  0  0
   34.7190    4.7920   13.5460 O   0  0  0  0  0  0  0  0  0  0  0  0
   35.2820    5.9750   11.4630 O   0  0  0  0  0  0  0  0  0  0  0  0
   36.7280    3.9160   12.1330 C   0  0  0  0  0  0  0  0  0  0  0  0
   36.5220    3.3890   10.8540 C   0  0  0  0  0  0  0  0  0  0  0  0
   37.2380    2.2630   10.4290 C   0  0  0  0  0  0  0  0  0  0  0  0
   38.1610    1.6560   11.2840 C   0  0  0  0  0  0  0  0  0  0  0  0
   38.3580    2.1730   12.5690 C   0  0  0  0  0  0  0  0  0  0  0  0
   37.6370    3.2910   12.9960 C   0  0  0  0  0  0  0  0  0  0  0  0
   38.2440    6.4130   13.2470 C   0  0  0  0  0  0  0  0  0  0  0  0
   38.8240    7.7860   13.6380 C   0  0  0  0  0  0  0  0  0  0  0  0
   40.7410   11.0570   15.8330 C   0  0  0  0  0  0  0  0  0  0  0  0
   43.6470   13.6220   16.8800 S   0  0  0  0  0  0  0  0  0  0  0  0
   43.5730   15.1080   15.9630 C   0  0  0  0  0  0  0  0  0  0  0  0
   44.4140   16.3150   16.3800 C   0  0  0  0  0  0  0  0  0  0  0  0
   45.0420   16.1720   17.4560 O   0  0  0  0  0  0  0  0  0  0  0  0
   44.4520   17.2960   15.6400 O   0  5  0  0  0  0  0  0  0  0  0  0
   40.4510   15.7330   13.4560 H   0  0  0  0  0  0  0  0  0  0  0  0
   40.7900   16.7140   14.9540 H   0  0  0  0  0  0  0  0  0  0  0  0
   43.9220   10.7150   17.0370 H   0  0  0  0  0  0  0  0  0  0  0  0
   43.1000    8.4180   17.3690 H   0  0  0  0  0  0  0  0  0  0  0  0
   40.8900    7.7120   16.5740 H   0  0  0  0  0  0  0  0  0  0  0  0
   38.6290   10.1530   14.8120 H   0  0  0  0  0  0  0  0  0  0  0  0
   39.0000    7.3270   15.7740 H   0  0  0  0  0  0  0  0  0  0  0  0
   36.7410    8.2060   16.4100 H   0  0  0  0  0  0  0  0  0  0  0  0
   36.4860    8.8200   14.7140 H   0  0  0  0  0  0  0  0  0  0  0  0
   36.9160    5.8680   15.5880 H   0  0  0  0  0  0  0  0  0  0  0  0
   35.3380    6.6380   15.0760 H   0  0  0  0  0  0  0  0  0  0  0  0
   35.7940    3.8350   10.1690 H   0  0  0  0  0  0  0  0  0  0  0  0
   37.0720    1.8430    9.4330 H   0  0  0  0  0  0  0  0  0  0  0  0
   38.7240    0.7780   10.9580 H   0  0  0  0  0  0  0  0  0  0  0  0
   39.0790    1.7000   13.2420 H   0  0  0  0  0  0  0  0  0  0  0  0
   37.8050    3.6520   14.0190 H   0  0  0  0  0  0  0  0  0  0  0  0
   38.7680    5.6280   13.8650 H   0  0  0  0  0  0  0  0  0  0  0  0
   38.4480    6.2180   12.1680 H   0  0  0  0  0  0  0  0  0  0  0  0
   38.3800    8.5780   12.9950 H   0  0  0  0  0  0  0  0  0  0  0  0
   39.9280    7.7520   13.4900 H   0  0  0  0  0  0  0  0  0  0  0  0
   40.0160   11.8020   15.5010 H   0  0  0  0  0  0  0  0  0  0  0  0
  1  2  2  0  0  0  0
  2  3  1  0  0  0  0
  2  4  1  0  0  0  0
  4  5  1  0  0  0  0
  4 37  1  0  0  0  0
  4 38  1  0  0  0  0
  5  6  1  0  0  0  0
  6 33  2  0  0  0  0
  6  7  1  0  0  0  0
  7  8  1  0  0  0  0
  7  9  2  0  0  0  0
  9 10  1  0  0  0  0
  9 32  1  0  0  0  0
 10 31  2  0  0  0  0
 10 11  1  0  0  0  0
 11 12  2  0  0  0  0
 11 39  1  0  0  0  0
 12 13  1  0  0  0  0
 12 40  1  0  0  0  0
 13 14  2  0  0  0  0
 13 41  1  0  0  0  0
 14 15  1  0  0  0  0
 14 31  1  0  0  0  0
 15 16  1  0  0  0  0
 15 42  1  0  0  0  0
 16 30  1  0  0  0  0
 16 17  1  0  0  0  0
 16 43  1  0  0  0  0
 17 18  1  0  0  0  0
 17 44  1  0  0  0  0
 17 45  1  0  0  0  0
 18 19  1  0  0  0  0
 18 46  1  0  0  0  0
 18 47  1  0  0  0  0
 19 20  1  0  0  0  0
 19 29  1  0  0  0  0
 20 21  2  0  0  0  0
 20 22  2  0  0  0  0
 20 23  1  0  0  0  0
 23 28  2  0  0  0  0
 23 24  1  0  0  0  0
 24 25  2  0  0  0  0
 24 48  1  0  0  0  0
 25 26  1  0  0  0  0
 25 49  1  0  0  0  0
 26 27  2  0  0  0  0
 26 50  1  0  0  0  0
 27 28  1  0  0  0  0
 27 51  1  0  0  0  0
 28 52  1  0  0  0  0
 29 30  1  0  0  0  0
 29 53  1  0  0  0  0
 29 54  1  0  0  0  0
 30 55  1  0  0  0  0
 30 56  1  0  0  0  0
 31 57  1  0  0  0  0
 32 33  1  0  0  0  0
 33 34  1  0  0  0  0
 34 35  2  0  0  0  0
 34 36  1  0  0  0  0
M  CHG  2   3  -1  36  -1
M  END
$$$$
