18637-1
 OpenBabel02232411163D
Structure written by MMmdl.
 53 54  0  0  0  0  0  0  0  0999 V2000
   24.5390   10.7080   30.8270 C   0  0  0  0  0  0  0  0  0  0  0  0
   23.2350   11.1020   30.1660 C   0  0  0  0  0  0  0  0  0  0  0  0
   22.1390   11.1720   31.1540 O   0  0  0  0  0  0  0  0  0  0  0  0
   21.5310   10.0300   31.5510 C   0  0  0  0  0  0  0  0  0  0  0  0
   21.9760    8.8380   31.0930 N   0  0  0  0  0  0  0  0  0  0  0  0
   21.2600    7.7040   31.4490 C   0  0  0  0  0  0  0  0  0  0  0  0
   20.1300    7.7540   32.2610 C   0  0  0  0  0  0  0  0  0  0  0  0
   19.6760    9.0090   32.7460 C   0  0  0  0  0  0  0  0  0  0  0  0
   18.5410    9.0650   33.5170 N   0  0  0  0  0  0  0  0  0  0  0  0
   20.3950   10.1980   32.3980 C   0  0  0  0  0  0  0  0  0  0  0  0
   20.0210   11.4970   32.7990 C   0  0  0  0  0  0  0  0  0  0  0  0
   19.7620   12.5900   33.0910 N   0  0  0  0  0  0  0  0  0  0  0  0
   21.8090    6.5360   30.8780 N   0  0  0  0  0  0  0  0  0  0  0  0
   21.1900    5.2660   30.8010 C   0  0  0  0  0  0  0  0  0  0  0  0
   20.1150    5.0330   31.3120 O   0  0  0  0  0  0  0  0  0  0  0  0
   21.9650    4.2630   29.9580 C   0  0  0  0  0  0  0  0  0  0  0  0
   23.2860    3.8880   30.5600 C   0  0  0  0  0  0  0  0  0  0  0  0
   24.4330    4.6810   30.3270 C   0  0  0  0  0  0  0  0  0  0  0  0
   24.1840    5.7690   29.5030 O   0  0  0  0  0  0  0  0  0  0  0  0
   25.2460    6.7440   29.3230 C   0  0  0  0  0  0  0  0  0  0  0  0
   25.6760    4.3600   30.8770 C   0  0  0  0  0  0  0  0  0  0  0  0
   25.8080    3.2120   31.6770 C   0  0  0  0  0  0  0  0  0  0  0  0
   24.6660    2.3860   31.8920 C   0  0  0  0  0  0  0  0  0  0  0  0
   23.4270    2.7350   31.3400 C   0  0  0  0  0  0  0  0  0  0  0  0
   24.8820    1.2810   32.6930 O   0  0  0  0  0  0  0  0  0  0  0  0
   23.9730    0.1630   32.4930 C   0  0  0  0  0  0  0  0  0  0  0  0
   27.1030    2.8970   32.1820 N   0  0  0  0  0  0  0  0  0  0  0  0
   27.4020    2.3600   33.4660 C   0  0  0  0  0  0  0  0  0  0  0  0
   26.5180    2.0340   34.2330 O   0  0  0  0  0  0  0  0  0  0  0  0
   28.8740    2.2410   33.7240 C   0  0  0  0  0  0  0  0  0  0  0  0
   24.4620    9.7050   31.3090 H   0  0  0  0  0  0  0  0  0  0  0  0
   24.8470   11.4550   31.5880 H   0  0  0  0  0  0  0  0  0  0  0  0
   25.3420   10.6450   30.0490 H   0  0  0  0  0  0  0  0  0  0  0  0
   23.2400   12.1660   29.8240 H   0  0  0  0  0  0  0  0  0  0  0  0
   22.9520   10.4040   29.3470 H   0  0  0  0  0  0  0  0  0  0  0  0
   19.5750    6.8480   32.5130 H   0  0  0  0  0  0  0  0  0  0  0  0
   18.1600    9.9550   33.8360 H   0  0  0  0  0  0  0  0  0  0  0  0
   18.0380    8.2010   33.7930 H   0  0  0  0  0  0  0  0  0  0  0  0
   22.7270    6.6700   30.3850 H   0  0  0  0  0  0  0  0  0  0  0  0
   21.3370    3.3470   29.8200 H   0  0  0  0  0  0  0  0  0  0  0  0
   22.1450    4.7260   28.9490 H   0  0  0  0  0  0  0  0  0  0  0  0
   26.0820    6.2810   28.7560 H   0  0  0  0  0  0  0  0  0  0  0  0
   25.5770    7.1440   30.3050 H   0  0  0  0  0  0  0  0  0  0  0  0
   24.7290    7.5270   28.7220 H   0  0  0  0  0  0  0  0  0  0  0  0
   26.5540    4.9800   30.6750 H   0  0  0  0  0  0  0  0  0  0  0  0
   22.5560    2.0960   31.5050 H   0  0  0  0  0  0  0  0  0  0  0  0
   24.4680   -0.6470   33.0780 H   0  0  0  0  0  0  0  0  0  0  0  0
   22.9710    0.4000   32.9130 H   0  0  0  0  0  0  0  0  0  0  0  0
   23.9220   -0.1060   31.4160 H   0  0  0  0  0  0  0  0  0  0  0  0
   27.8880    3.2910   31.6290 H   0  0  0  0  0  0  0  0  0  0  0  0
   29.0820    1.8350   34.7450 H   0  0  0  0  0  0  0  0  0  0  0  0
   29.3640    1.5560   32.9820 H   0  0  0  0  0  0  0  0  0  0  0  0
   29.3890    3.2340   33.6430 H   0  0  0  0  0  0  0  0  0  0  0  0
  1  2  1  0  0  0  0
  1 31  1  0  0  0  0
  1 32  1  0  0  0  0
  1 33  1  0  0  0  0
  2  3  1  0  0  0  0
  2 34  1  0  0  0  0
  2 35  1  0  0  0  0
  3  4  1  0  0  0  0
  4 10  2  0  0  0  0
  4  5  1  0  0  0  0
  5  6  2  0  0  0  0
  6  7  1  0  0  0  0
  6 13  1  0  0  0  0
  7  8  2  0  0  0  0
  7 36  1  0  0  0  0
  8  9  1  0  0  0  0
  8 10  1  0  0  0  0
  9 37  1  0  0  0  0
  9 38  1  0  0  0  0
 10 11  1  0  0  0  0
 11 12  3  0  0  0  0
 13 14  1  0  0  0  0
 13 39  1  0  0  0  0
 14 15  2  0  0  0  0
 14 16  1  0  0  0  0
 16 17  1  0  0  0  0
 16 40  1  0  0  0  0
 16 41  1  0  0  0  0
 17 24  2  0  0  0  0
 17 18  1  0  0  0  0
 18 19  1  0  0  0  0
 18 21  2  0  0  0  0
 19 20  1  0  0  0  0
 20 42  1  0  0  0  0
 20 43  1  0  0  0  0
 20 44  1  0  0  0  0
 21 22  1  0  0  0  0
 21 45  1  0  0  0  0
 22 23  2  0  0  0  0
 22 27  1  0  0  0  0
 23 24  1  0  0  0  0
 23 25  1  0  0  0  0
 24 46  1  0  0  0  0
 25 26  1  0  0  0  0
 26 47  1  0  0  0  0
 26 48  1  0  0  0  0
 26 49  1  0  0  0  0
 27 28  1  0  0  0  0
 27 50  1  0  0  0  0
 28 29  2  0  0  0  0
 28 30  1  0  0  0  0
 30 51  1  0  0  0  0
 30 52  1  0  0  0  0
 30 53  1  0  0  0  0
M  END
$$$$
