18639-1
 OpenBabel02232411163D
Structure written by MMmdl.
 48 49  0  0  0  0  0  0  0  0999 V2000
   23.8350   12.6250   30.3430 C   0  0  0  0  0  0  0  0  0  0  0  0
   23.3840   11.1810   30.4440 C   0  0  0  0  0  0  0  0  0  0  0  0
   22.1410   11.2730   31.2540 O   0  0  0  0  0  0  0  0  0  0  0  0
   21.5210   10.1280   31.6080 C   0  0  0  0  0  0  0  0  0  0  0  0
   22.0060    8.9440   31.1640 N   0  0  0  0  0  0  0  0  0  0  0  0
   21.2890    7.8020   31.4880 C   0  0  0  0  0  0  0  0  0  0  0  0
   20.1360    7.8310   32.2650 C   0  0  0  0  0  0  0  0  0  0  0  0
   19.6440    9.0760   32.7390 C   0  0  0  0  0  0  0  0  0  0  0  0
   18.4970    9.1070   33.4910 N   0  0  0  0  0  0  0  0  0  0  0  0
   20.3460   10.2770   32.4050 C   0  0  0  0  0  0  0  0  0  0  0  0
   19.9300   11.5730   32.7760 C   0  0  0  0  0  0  0  0  0  0  0  0
   19.6370   12.6640   33.0400 N   0  0  0  0  0  0  0  0  0  0  0  0
   21.8640    6.6370   30.9260 N   0  0  0  0  0  0  0  0  0  0  0  0
   21.2580    5.3660   30.8420 C   0  0  0  0  0  0  0  0  0  0  0  0
   20.1660    5.1240   31.3130 O   0  0  0  0  0  0  0  0  0  0  0  0
   22.0660    4.3550   30.0360 C   0  0  0  0  0  0  0  0  0  0  0  0
   23.4170    4.0430   30.6110 C   0  0  0  0  0  0  0  0  0  0  0  0
   24.5390    4.8780   30.3110 C   0  0  0  0  0  0  0  0  0  0  0  0
   24.2160    5.9330   29.4670 O   0  0  0  0  0  0  0  0  0  0  0  0
   25.2080    6.9820   29.2890 C   0  0  0  0  0  0  0  0  0  0  0  0
   25.8040    4.6050   30.8050 C   0  0  0  0  0  0  0  0  0  0  0  0
   25.9940    3.4810   31.6370 C   0  0  0  0  0  0  0  0  0  0  0  0
   27.3320    3.1920   32.1620 N   0  3  0  0  0  0  0  0  0  0  0  0
   27.4300    2.4000   33.0860 O   0  5  0  0  0  0  0  0  0  0  0  0
   28.2950    3.7510   31.6490 O   0  0  0  0  0  0  0  0  0  0  0  0
   24.8980    2.6390   31.9360 C   0  0  0  0  0  0  0  0  0  0  0  0
   23.6170    2.9270   31.4070 C   0  0  0  0  0  0  0  0  0  0  0  0
   25.2070    1.5890   32.7470 O   0  0  0  0  0  0  0  0  0  0  0  0
   24.1860    0.5690   32.9540 C   0  0  0  0  0  0  0  0  0  0  0  0
   24.7400   12.6700   29.6860 H   0  0  0  0  0  0  0  0  0  0  0  0
   23.0420   13.2610   29.8840 H   0  0  0  0  0  0  0  0  0  0  0  0
   24.0960   13.0410   31.3410 H   0  0  0  0  0  0  0  0  0  0  0  0
   23.1070   10.7490   29.4560 H   0  0  0  0  0  0  0  0  0  0  0  0
   24.1120   10.5410   30.9910 H   0  0  0  0  0  0  0  0  0  0  0  0
   19.5900    6.9140   32.4990 H   0  0  0  0  0  0  0  0  0  0  0  0
   18.0000    8.2310   33.7430 H   0  0  0  0  0  0  0  0  0  0  0  0
   18.0880    9.9880   33.8010 H   0  0  0  0  0  0  0  0  0  0  0  0
   22.7850    6.7770   30.4410 H   0  0  0  0  0  0  0  0  0  0  0  0
   21.4670    3.4080   29.9570 H   0  0  0  0  0  0  0  0  0  0  0  0
   22.2030    4.7760   29.0000 H   0  0  0  0  0  0  0  0  0  0  0  0
   25.5330    7.3830   30.2730 H   0  0  0  0  0  0  0  0  0  0  0  0
   26.0550    6.5870   28.6890 H   0  0  0  0  0  0  0  0  0  0  0  0
   24.6220    7.7400   28.7200 H   0  0  0  0  0  0  0  0  0  0  0  0
   26.6640    5.2380   30.5540 H   0  0  0  0  0  0  0  0  0  0  0  0
   22.7790    2.2600   31.6290 H   0  0  0  0  0  0  0  0  0  0  0  0
   24.7410   -0.1760   33.5720 H   0  0  0  0  0  0  0  0  0  0  0  0
   23.3280    0.9940   33.5170 H   0  0  0  0  0  0  0  0  0  0  0  0
   23.8810    0.1320   31.9790 H   0  0  0  0  0  0  0  0  0  0  0  0
  1  2  1  0  0  0  0
  1 30  1  0  0  0  0
  1 31  1  0  0  0  0
  1 32  1  0  0  0  0
  2  3  1  0  0  0  0
  2 33  1  0  0  0  0
  2 34  1  0  0  0  0
  3  4  1  0  0  0  0
  4 10  2  0  0  0  0
  4  5  1  0  0  0  0
  5  6  2  0  0  0  0
  6  7  1  0  0  0  0
  6 13  1  0  0  0  0
  7  8  2  0  0  0  0
  7 35  1  0  0  0  0
  8  9  1  0  0  0  0
  8 10  1  0  0  0  0
  9 36  1  0  0  0  0
  9 37  1  0  0  0  0
 10 11  1  0  0  0  0
 11 12  3  0  0  0  0
 13 14  1  0  0  0  0
 13 38  1  0  0  0  0
 14 15  2  0  0  0  0
 14 16  1  0  0  0  0
 16 17  1  0  0  0  0
 16 39  1  0  0  0  0
 16 40  1  0  0  0  0
 17 27  2  0  0  0  0
 17 18  1  0  0  0  0
 18 19  1  0  0  0  0
 18 21  2  0  0  0  0
 19 20  1  0  0  0  0
 20 41  1  0  0  0  0
 20 42  1  0  0  0  0
 20 43  1  0  0  0  0
 21 22  1  0  0  0  0
 21 44  1  0  0  0  0
 22 23  1  0  0  0  0
 22 26  2  0  0  0  0
 23 24  1  0  0  0  0
 23 25  2  0  0  0  0
 26 27  1  0  0  0  0
 26 28  1  0  0  0  0
 27 45  1  0  0  0  0
 28 29  1  0  0  0  0
 29 46  1  0  0  0  0
 29 47  1  0  0  0  0
 29 48  1  0  0  0  0
M  CHG  2  23   1  24  -1
M  END
$$$$
