51
                    3D
 Schrodinger Suite 2022-3.
 44 47  0  0  1  0  0  0  0  0999 V2000
    3.3860  -48.1370    7.2590 O   0  0  0  0  0  0  0  0  0  0  0  0
    3.0740  -49.1390    6.6040 C   0  0  0  0  0  0  0  0  0  0  0  0
    3.8310  -49.8820    5.9510 O   0  5  0  0  0  0  0  0  0  0  0  0
    1.5910  -49.5630    6.6100 C   0  0  0  0  0  0  0  0  0  0  0  0
   -0.1240  -51.0410    6.9120 C   0  0  0  0  0  0  0  0  0  0  0  0
   -0.9200  -52.1690    7.1890 C   0  0  0  0  0  0  0  0  0  0  0  0
   -2.2860  -52.0620    6.9880 C   0  0  0  0  0  0  0  0  0  0  0  0
   -2.8670  -50.8530    6.5360 C   0  0  0  0  0  0  0  0  0  0  0  0
   -2.0690  -49.7500    6.2860 C   0  0  0  0  0  0  0  0  0  0  0  0
   -0.6740  -49.7910    6.4340 C   0  0  0  0  0  0  0  0  0  0  0  0
    0.4340  -48.8800    6.2450 C   0  0  0  0  0  0  0  0  0  0  0  0
    0.3490  -47.4890    5.7200 C   0  0  0  0  0  0  0  0  0  0  0  0
    0.2970  -46.4140    6.8190 C   0  0  0  0  0  0  0  0  0  0  0  0
   -0.8750  -46.5300    7.7860 C   0  0  0  0  0  0  0  0  0  0  0  0
   -2.0180  -45.8910    7.0990 O   0  0  0  0  0  0  0  0  0  0  0  0
   -3.2250  -45.9090    7.7280 C   0  0  0  0  0  0  0  0  0  0  0  0
   -5.7940  -45.6920    8.8540 C   0  0  0  0  0  0  0  0  0  0  0  0
   -4.8240  -46.4540    9.4570 C   0  0  0  0  0  0  0  0  0  0  0  0
   -3.5210  -46.5640    8.9100 C   0  0  0  0  0  0  0  0  0  0  0  0
   -0.4790  -53.0980    7.5510 H   0  0  0  0  0  0  0  0  0  0  0  0
   -2.9380  -52.9150    7.1870 H   0  0  0  0  0  0  0  0  0  0  0  0
   -3.9480  -50.8070    6.3980 H   0  0  0  0  0  0  0  0  0  0  0  0
   -2.8370  -48.2760    5.8140 Cl  0  0  0  0  0  0  0  0  0  0  0  0
   -0.5530  -47.3790    5.0660 H   0  0  0  0  0  0  0  0  0  0  0  0
    1.2480  -47.2750    5.0850 H   0  0  0  0  0  0  0  0  0  0  0  0
    0.2460  -45.4090    6.3350 H   0  0  0  0  0  0  0  0  0  0  0  0
    1.2330  -46.4870    7.4280 H   0  0  0  0  0  0  0  0  0  0  0  0
   -0.7110  -45.9230    8.7030 H   0  0  0  0  0  0  0  0  0  0  0  0
   -1.1530  -47.5820    7.9980 H   0  0  0  0  0  0  0  0  0  0  0  0
   -2.8050  -47.1820    9.4420 H   0  0  0  0  0  0  0  0  0  0  0  0
   -5.5220  -45.0310    7.6170 C   0  0  0  0  0  0  0  0  0  0  0  0
   -4.2320  -45.1370    7.0300 C   0  0  0  0  0  0  0  0  0  0  0  0
   -3.9820  -44.5220    5.7700 C   0  0  0  0  0  0  0  0  0  0  0  0
   -4.9700  -43.8140    5.1290 C   0  0  0  0  0  0  0  0  0  0  0  0
   -6.2630  -43.7100    5.7100 C   0  0  0  0  0  0  0  0  0  0  0  0
   -6.5340  -44.2970    6.9230 C   0  0  0  0  0  0  0  0  0  0  0  0
   -3.0000  -44.6430    5.3110 H   0  0  0  0  0  0  0  0  0  0  0  0
   -4.7820  -43.3340    4.1700 H   0  0  0  0  0  0  0  0  0  0  0  0
   -7.0360  -43.1600    5.1780 H   0  0  0  0  0  0  0  0  0  0  0  0
   -7.5270  -44.2260    7.3640 H   0  0  0  0  0  0  0  0  0  0  0  0
   -5.0510  -46.9990   10.3760 H   0  0  0  0  0  0  0  0  0  0  0  0
   -6.7860  -45.6000    9.2940 H   0  0  0  0  0  0  0  0  0  0  0  0
    1.2590  -50.8660    7.0240 N   0  0  0  0  0  0  0  0  0  0  0  0
    1.8910  -51.6030    7.3210 H   0  0  0  0  0  0  0  0  0  0  0  0
  1  2  2  0  0  0  0
  2  3  1  0  0  0  0
  2  4  1  0  0  0  0
  4 11  2  0  0  0  0
  4 43  1  0  0  0  0
  5  6  1  0  0  0  0
  5 10  2  0  0  0  0
  5 43  1  0  0  0  0
  6  7  2  0  0  0  0
  6 20  1  0  0  0  0
  7  8  1  0  0  0  0
  7 21  1  0  0  0  0
  8  9  2  0  0  0  0
  8 22  1  0  0  0  0
  9 10  1  0  0  0  0
  9 23  1  0  0  0  0
 10 11  1  0  0  0  0
 11 12  1  0  0  0  0
 12 24  1  0  0  0  0
 12 25  1  0  0  0  0
 12 13  1  0  0  0  0
 13 14  1  0  0  0  0
 13 26  1  0  0  0  0
 13 27  1  0  0  0  0
 14 15  1  0  0  0  0
 14 28  1  0  0  0  0
 14 29  1  0  0  0  0
 15 16  1  0  0  0  0
 16 19  2  0  0  0  0
 16 32  1  0  0  0  0
 17 18  2  0  0  0  0
 17 31  1  0  0  0  0
 17 42  1  0  0  0  0
 18 19  1  0  0  0  0
 18 41  1  0  0  0  0
 19 30  1  0  0  0  0
 31 32  2  0  0  0  0
 31 36  1  0  0  0  0
 32 33  1  0  0  0  0
 33 34  2  0  0  0  0
 33 37  1  0  0  0  0
 34 35  1  0  0  0  0
 34 38  1  0  0  0  0
 35 36  2  0  0  0  0
 35 39  1  0  0  0  0
 36 40  1  0  0  0  0
 43 44  1  0  0  0  0
M  CHG  1   3  -1
M  END
$$$$
