43
 OpenBabel02232411163D
Structure written by MMmdl.
 44 47  0  0  0  0  0  0  0  0999 V2000
    3.6850  -48.6050    7.1950 O   0  0  0  0  0  0  0  0  0  0  0  0
    3.2760  -49.5570    6.5170 C   0  0  0  0  0  0  0  0  0  0  0  0
    3.9690  -50.4140    5.9360 O   0  5  0  0  0  0  0  0  0  0  0  0
    1.7530  -49.7420    6.3760 C   0  0  0  0  0  0  0  0  0  0  0  0
   -0.2180  -50.8970    6.5190 C   0  0  0  0  0  0  0  0  0  0  0  0
   -1.2340  -51.8360    6.7610 C   0  0  0  0  0  0  0  0  0  0  0  0
   -2.5260  -51.4860    6.3990 C   0  0  0  0  0  0  0  0  0  0  0  0
   -2.8080  -50.2330    5.8040 C   0  0  0  0  0  0  0  0  0  0  0  0
   -1.8080  -49.3010    5.5630 C   0  0  0  0  0  0  0  0  0  0  0  0
   -0.4870  -49.6100    5.9250 C   0  0  0  0  0  0  0  0  0  0  0  0
    0.7730  -48.9010    5.8620 C   0  0  0  0  0  0  0  0  0  0  0  0
    0.9200  -47.5090    5.3580 C   0  0  0  0  0  0  0  0  0  0  0  0
    0.8930  -46.4660    6.4910 C   0  0  0  0  0  0  0  0  0  0  0  0
   -0.4170  -46.4550    7.2690 C   0  0  0  0  0  0  0  0  0  0  0  0
   -1.3840  -45.8170    6.3520 O   0  0  0  0  0  0  0  0  0  0  0  0
   -2.6440  -45.6110    6.8230 C   0  0  0  0  0  0  0  0  0  0  0  0
   -4.7450  -44.5230    6.2940 C   0  0  0  0  0  0  0  0  0  0  0  0
   -3.4650  -44.8360    5.9310 C   0  0  0  0  0  0  0  0  0  0  0  0
   -1.0230  -52.8020    7.2200 H   0  0  0  0  0  0  0  0  0  0  0  0
   -3.3490  -52.1800    6.5760 H   0  0  0  0  0  0  0  0  0  0  0  0
   -3.8410  -50.0090    5.5330 H   0  0  0  0  0  0  0  0  0  0  0  0
   -2.0540  -48.3420    5.1040 H   0  0  0  0  0  0  0  0  0  0  0  0
    0.0700  -47.2800    4.6650 H   0  0  0  0  0  0  0  0  0  0  0  0
    1.8780  -47.3900    4.8000 H   0  0  0  0  0  0  0  0  0  0  0  0
    1.0420  -45.4520    6.0500 H   0  0  0  0  0  0  0  0  0  0  0  0
    1.7150  -46.6880    7.2150 H   0  0  0  0  0  0  0  0  0  0  0  0
   -0.3640  -45.8100    8.1710 H   0  0  0  0  0  0  0  0  0  0  0  0
   -0.8010  -47.4760    7.4820 H   0  0  0  0  0  0  0  0  0  0  0  0
   -3.0600  -44.5050    4.9800 H   0  0  0  0  0  0  0  0  0  0  0  0
   -3.1300  -46.0670    8.0330 C   0  0  0  0  0  0  0  0  0  0  0  0
   -5.3810  -43.9270    5.6350 H   0  0  0  0  0  0  0  0  0  0  0  0
   -4.4690  -45.7620    8.4040 C   0  0  0  0  0  0  0  0  0  0  0  0
   -5.2870  -44.9860    7.5380 C   0  0  0  0  0  0  0  0  0  0  0  0
   -6.6370  -44.7180    7.9080 C   0  0  0  0  0  0  0  0  0  0  0  0
   -7.1320  -45.1930    9.0970 C   0  0  0  0  0  0  0  0  0  0  0  0
   -6.3040  -45.9340    9.9860 C   0  0  0  0  0  0  0  0  0  0  0  0
   -5.0070  -46.2240    9.6490 C   0  0  0  0  0  0  0  0  0  0  0  0
   -7.2740  -44.1470    7.2290 H   0  0  0  0  0  0  0  0  0  0  0  0
   -8.1680  -45.0320    9.3680 H   0  0  0  0  0  0  0  0  0  0  0  0
   -6.7320  -46.2730   10.9270 H   0  0  0  0  0  0  0  0  0  0  0  0
   -4.3760  -46.8150   10.3120 H   0  0  0  0  0  0  0  0  0  0  0  0
   -2.5390  -46.6680    8.7170 H   0  0  0  0  0  0  0  0  0  0  0  0
    1.1610  -50.9530    6.7830 N   0  0  0  0  0  0  0  0  0  0  0  0
    1.6180  -51.7600    7.1910 H   0  0  0  0  0  0  0  0  0  0  0  0
  1  2  2  0  0  0  0
  2  3  1  0  0  0  0
  2  4  1  0  0  0  0
  4 11  2  0  0  0  0
  4 43  1  0  0  0  0
  5  6  2  0  0  0  0
  5 10  1  0  0  0  0
  5 43  1  0  0  0  0
  6  7  1  0  0  0  0
  6 19  1  0  0  0  0
  7  8  2  0  0  0  0
  7 20  1  0  0  0  0
  8  9  1  0  0  0  0
  8 21  1  0  0  0  0
  9 10  2  0  0  0  0
  9 22  1  0  0  0  0
 10 11  1  0  0  0  0
 11 12  1  0  0  0  0
 12 23  1  0  0  0  0
 12 24  1  0  0  0  0
 12 13  1  0  0  0  0
 13 14  1  0  0  0  0
 13 25  1  0  0  0  0
 13 26  1  0  0  0  0
 14 15  1  0  0  0  0
 14 27  1  0  0  0  0
 14 28  1  0  0  0  0
 15 16  1  0  0  0  0
 16 18  2  0  0  0  0
 16 30  1  0  0  0  0
 17 18  1  0  0  0  0
 17 31  1  0  0  0  0
 17 33  2  0  0  0  0
 18 29  1  0  0  0  0
 30 32  2  0  0  0  0
 30 42  1  0  0  0  0
 32 33  1  0  0  0  0
 32 37  1  0  0  0  0
 33 34  1  0  0  0  0
 34 35  2  0  0  0  0
 34 38  1  0  0  0  0
 35 36  1  0  0  0  0
 35 39  1  0  0  0  0
 36 37  2  0  0  0  0
 36 40  1  0  0  0  0
 37 41  1  0  0  0  0
 43 44  1  0  0  0  0
M  CHG  1   3  -1
M  END
$$$$
