p38a_3fmh
 OpenBabel02232411163D
Structure written by MMmdl.
 46 49  0  0  1  0  0  0  0  0999 V2000
   38.3670   37.2440   14.8700 F   0  0  0  0  0  0  0  0  0  0  0  0
   37.6780   36.7150   15.8780 C   0  0  0  0  0  0  0  0  0  0  0  0
   36.3380   36.3830   15.6610 C   0  0  0  0  0  0  0  0  0  0  0  0
   35.5820   35.8830   16.7250 C   0  0  0  0  0  0  0  0  0  0  0  0
   38.3230   36.5620   17.1130 C   0  0  0  0  0  0  0  0  0  0  0  0
   37.5440   36.0790   18.1610 C   0  0  0  0  0  0  0  0  0  0  0  0
   38.0690   35.9550   19.3730 F   0  0  0  0  0  0  0  0  0  0  0  0
   36.1920   35.7220   17.9720 C   0  0  0  0  0  0  0  0  0  0  0  0
   35.4790   35.0820   18.9960 O   0  0  0  0  0  0  0  0  0  0  0  0
   35.0590   35.9090   20.0340 C   0  0  0  0  0  0  0  0  0  0  0  0
   34.5110   35.0550   21.1230 C   0  0  0  0  0  0  0  0  0  0  0  0
   34.3810   33.8510   21.0750 O   0  0  0  0  0  0  0  0  0  0  0  0
   34.1240   35.7740   22.3070 N   0  0  0  0  0  0  0  0  0  0  0  0
   33.5970   35.0150   23.4770 C   0  0  0  0  0  0  0  0  0  0  0  0
   34.2210   37.1710   22.3920 C   0  0  0  0  0  0  0  0  0  0  0  0
   33.8630   37.7770   23.5720 N   0  0  0  0  0  0  0  0  0  0  0  0
   35.1080   37.2590   20.0770 C   0  0  0  0  0  0  0  0  0  0  0  0
   34.6810   37.9300   21.2750 C   0  0  0  0  0  0  0  0  0  0  0  0
   34.7070   39.3410   21.4210 C   0  0  0  0  0  0  0  0  0  0  0  0
   34.3760   39.9610   22.5670 N   0  0  0  0  0  0  0  0  0  0  0  0
   33.9800   39.1470   23.6400 C   0  0  0  0  0  0  0  0  0  0  0  0
   33.7710   39.7740   24.8650 N   0  0  0  0  0  0  0  0  0  0  0  0
   32.8690   39.1400   25.8800 C   0  0  2  0  0  0  0  0  0  0  0  0
   31.4020   39.3390   25.4950 C   0  0  0  0  0  0  0  0  0  0  0  0
   33.2270   39.8240   27.2360 C   0  0  0  0  0  0  0  0  0  0  0  0
   32.7390   39.0300   28.3830 N   0  0  0  0  0  0  0  0  0  0  0  0
   31.4410   39.0220   28.7950 N   0  0  0  0  0  0  0  0  0  0  0  0
   31.4290   38.1730   29.8600 C   0  0  0  0  0  0  0  0  0  0  0  0
   32.7450   37.6770   30.0680 N   0  0  0  0  0  0  0  0  0  0  0  0
   33.5100   38.2050   29.1660 N   0  0  0  0  0  0  0  0  0  0  0  0
   35.8690   36.5280   14.6860 H   0  0  0  0  0  0  0  0  0  0  0  0
   34.5240   35.6410   16.5770 H   0  0  0  0  0  0  0  0  0  0  0  0
   39.3680   36.8470   17.2570 H   0  0  0  0  0  0  0  0  0  0  0  0
   34.2160   35.2360   24.3880 H   0  0  0  0  0  0  0  0  0  0  0  0
   32.5360   35.3240   23.6830 H   0  0  0  0  0  0  0  0  0  0  0  0
   33.6260   33.9140   23.2700 H   0  0  0  0  0  0  0  0  0  0  0  0
   35.4710   37.8700   19.2480 H   0  0  0  0  0  0  0  0  0  0  0  0
   34.9950   39.9770   20.5690 H   0  0  0  0  0  0  0  0  0  0  0  0
   33.7140   40.8160   24.8640 H   0  0  0  0  0  0  0  0  0  0  0  0
   33.1110   38.0420   25.9460 H   0  0  0  0  0  0  0  0  0  0  0  0
   30.7300   38.9620   26.3000 H   0  0  0  0  0  0  0  0  0  0  0  0
   31.1800   40.4180   25.3300 H   0  0  0  0  0  0  0  0  0  0  0  0
   31.1670   38.7750   24.5640 H   0  0  0  0  0  0  0  0  0  0  0  0
   34.3500   39.9240   27.3220 H   0  0  0  0  0  0  0  0  0  0  0  0
   32.7760   40.8560   27.2790 H   0  0  0  0  0  0  0  0  0  0  0  0
   30.5610   37.9160   30.4630 H   0  0  0  0  0  0  0  0  0  0  0  0
  1  2  1  0  0  0  0
  2  3  2  0  0  0  0
  2  5  1  0  0  0  0
  3  4  1  0  0  0  0
  3 31  1  0  0  0  0
  4  8  2  0  0  0  0
  4 32  1  0  0  0  0
  5  6  2  0  0  0  0
  5 33  1  0  0  0  0
  6  7  1  0  0  0  0
  6  8  1  0  0  0  0
  8  9  1  0  0  0  0
  9 10  1  0  0  0  0
 10 11  1  0  0  0  0
 10 17  2  0  0  0  0
 11 12  2  0  0  0  0
 11 13  1  0  0  0  0
 13 14  1  0  0  0  0
 13 15  1  0  0  0  0
 14 34  1  0  0  0  0
 14 35  1  0  0  0  0
 14 36  1  0  0  0  0
 15 16  2  0  0  0  0
 15 18  1  0  0  0  0
 16 21  1  0  0  0  0
 17 18  1  0  0  0  0
 17 37  1  0  0  0  0
 18 19  2  0  0  0  0
 19 20  1  0  0  0  0
 19 38  1  0  0  0  0
 20 21  2  0  0  0  0
 21 22  1  0  0  0  0
 22 23  1  0  0  0  0
 22 39  1  0  0  0  0
 23 24  1  0  0  0  0
 23 25  1  0  0  0  0
 23 40  1  6  0  0  0
 24 41  1  0  0  0  0
 24 42  1  0  0  0  0
 24 43  1  0  0  0  0
 25 26  1  0  0  0  0
 25 44  1  0  0  0  0
 25 45  1  0  0  0  0
 26 27  1  0  0  0  0
 26 30  1  0  0  0  0
 27 28  2  0  0  0  0
 28 29  1  0  0  0  0
 28 46  1  0  0  0  0
 29 30  2  0  0  0  0
M  END
$$$$
