18652-1
 OpenBabel02232411163D
Structure written by MMmdl.
 55 56  0  0  0  0  0  0  0  0999 V2000
   23.2570   10.4580   28.9570 C   0  0  0  0  0  0  0  0  0  0  0  0
   23.6060   10.9060   30.3660 C   0  0  0  0  0  0  0  0  0  0  0  0
   24.1450   12.3300   30.4320 C   0  0  0  0  0  0  0  0  0  0  0  0
   22.3510   11.0310   31.1810 O   0  0  0  0  0  0  0  0  0  0  0  0
   21.6990    9.9240   31.5800 C   0  0  0  0  0  0  0  0  0  0  0  0
   22.1620    8.7040   31.2090 N   0  0  0  0  0  0  0  0  0  0  0  0
   21.4020    7.5990   31.5510 C   0  0  0  0  0  0  0  0  0  0  0  0
   20.2310    7.6910   32.2960 C   0  0  0  0  0  0  0  0  0  0  0  0
   19.7700    8.9670   32.7160 C   0  0  0  0  0  0  0  0  0  0  0  0
   18.6060    9.0560   33.4390 N   0  0  0  0  0  0  0  0  0  0  0  0
   20.5160   10.1340   32.3540 C   0  0  0  0  0  0  0  0  0  0  0  0
   20.1320   11.4510   32.6830 C   0  0  0  0  0  0  0  0  0  0  0  0
   19.8590   12.5530   32.9190 N   0  0  0  0  0  0  0  0  0  0  0  0
   21.9390    6.3930   31.0290 N   0  0  0  0  0  0  0  0  0  0  0  0
   21.2110    5.1950   30.8600 C   0  0  0  0  0  0  0  0  0  0  0  0
   20.0970    5.0380   31.3140 O   0  0  0  0  0  0  0  0  0  0  0  0
   21.8960    4.1650   29.9780 C   0  0  0  0  0  0  0  0  0  0  0  0
   23.2310    3.6760   30.4560 C   0  0  0  0  0  0  0  0  0  0  0  0
   24.4220    4.3430   30.0360 C   0  0  0  0  0  0  0  0  0  0  0  0
   24.1620    5.4710   29.2610 O   0  0  0  0  0  0  0  0  0  0  0  0
   25.2240    6.4580   29.1700 C   0  0  0  0  0  0  0  0  0  0  0  0
   25.6790    3.8440   30.3450 C   0  0  0  0  0  0  0  0  0  0  0  0
   25.8110    2.6660   31.1070 C   0  0  0  0  0  0  0  0  0  0  0  0
   27.4320    2.0550   31.3650 S   0  0  0  0  0  0  0  0  0  0  0  0
   28.0370    1.7010   30.0570 O   0  0  0  0  0  0  0  0  0  0  0  0
   27.3450    0.8630   32.2450 O   0  0  0  0  0  0  0  0  0  0  0  0
   28.3010    3.3340   32.1520 C   0  0  0  0  0  0  0  0  0  0  0  0
   24.6470    2.0400   31.5730 C   0  0  0  0  0  0  0  0  0  0  0  0
   23.3580    2.5400   31.2350 C   0  0  0  0  0  0  0  0  0  0  0  0
   24.8480    0.9310   32.3480 O   0  0  0  0  0  0  0  0  0  0  0  0
   23.6890    0.3180   32.9850 C   0  0  0  0  0  0  0  0  0  0  0  0
   22.8470    9.4220   28.9540 H   0  0  0  0  0  0  0  0  0  0  0  0
   22.5160   11.1410   28.4860 H   0  0  0  0  0  0  0  0  0  0  0  0
   24.1820   10.4650   28.3320 H   0  0  0  0  0  0  0  0  0  0  0  0
   24.2700   10.1780   30.8870 H   0  0  0  0  0  0  0  0  0  0  0  0
   24.4470   12.5990   31.4660 H   0  0  0  0  0  0  0  0  0  0  0  0
   25.0410   12.4060   29.7670 H   0  0  0  0  0  0  0  0  0  0  0  0
   23.3860   13.0640   30.0740 H   0  0  0  0  0  0  0  0  0  0  0  0
   19.6500    6.8020   32.5460 H   0  0  0  0  0  0  0  0  0  0  0  0
   18.0850    8.2030   33.7170 H   0  0  0  0  0  0  0  0  0  0  0  0
   18.2250    9.9570   33.7270 H   0  0  0  0  0  0  0  0  0  0  0  0
   22.8770    6.4710   30.5740 H   0  0  0  0  0  0  0  0  0  0  0  0
   21.2080    3.2870   29.8640 H   0  0  0  0  0  0  0  0  0  0  0  0
   22.0320    4.6500   28.9680 H   0  0  0  0  0  0  0  0  0  0  0  0
   25.9950    6.1000   28.4540 H   0  0  0  0  0  0  0  0  0  0  0  0
   24.6780    7.3470   28.7770 H   0  0  0  0  0  0  0  0  0  0  0  0
   25.6570    6.6660   30.1730 H   0  0  0  0  0  0  0  0  0  0  0  0
   26.5700    4.3750   29.9920 H   0  0  0  0  0  0  0  0  0  0  0  0
   27.8030    3.6610   33.1000 H   0  0  0  0  0  0  0  0  0  0  0  0
   29.3480    3.0340   32.4230 H   0  0  0  0  0  0  0  0  0  0  0  0
   28.4010    4.2520   31.5130 H   0  0  0  0  0  0  0  0  0  0  0  0
   22.4630    2.0220   31.5810 H   0  0  0  0  0  0  0  0  0  0  0  0
   23.1890    1.0480   33.6570 H   0  0  0  0  0  0  0  0  0  0  0  0
   22.9990   -0.0970   32.2210 H   0  0  0  0  0  0  0  0  0  0  0  0
   24.1670   -0.5010   33.5760 H   0  0  0  0  0  0  0  0  0  0  0  0
  1  2  1  0  0  0  0
  1 32  1  0  0  0  0
  1 33  1  0  0  0  0
  1 34  1  0  0  0  0
  2  3  1  0  0  0  0
  2  4  1  0  0  0  0
  2 35  1  0  0  0  0
  3 36  1  0  0  0  0
  3 37  1  0  0  0  0
  3 38  1  0  0  0  0
  4  5  1  0  0  0  0
  5 11  2  0  0  0  0
  5  6  1  0  0  0  0
  6  7  2  0  0  0  0
  7  8  1  0  0  0  0
  7 14  1  0  0  0  0
  8  9  2  0  0  0  0
  8 39  1  0  0  0  0
  9 10  1  0  0  0  0
  9 11  1  0  0  0  0
 10 40  1  0  0  0  0
 10 41  1  0  0  0  0
 11 12  1  0  0  0  0
 12 13  3  0  0  0  0
 14 15  1  0  0  0  0
 14 42  1  0  0  0  0
 15 16  2  0  0  0  0
 15 17  1  0  0  0  0
 17 18  1  0  0  0  0
 17 43  1  0  0  0  0
 17 44  1  0  0  0  0
 18 29  2  0  0  0  0
 18 19  1  0  0  0  0
 19 20  1  0  0  0  0
 19 22  2  0  0  0  0
 20 21  1  0  0  0  0
 21 45  1  0  0  0  0
 21 46  1  0  0  0  0
 21 47  1  0  0  0  0
 22 23  1  0  0  0  0
 22 48  1  0  0  0  0
 23 24  1  0  0  0  0
 23 28  2  0  0  0  0
 24 25  2  0  0  0  0
 24 26  2  0  0  0  0
 24 27  1  0  0  0  0
 27 49  1  0  0  0  0
 27 50  1  0  0  0  0
 27 51  1  0  0  0  0
 28 29  1  0  0  0  0
 28 30  1  0  0  0  0
 29 52  1  0  0  0  0
 30 31  1  0  0  0  0
 31 53  1  0  0  0  0
 31 54  1  0  0  0  0
 31 55  1  0  0  0  0
M  END
$$$$
