48
 OpenBabel02232411163D
Structure written by MMmdl.
 42 45  0  0  0  0  0  0  0  0999 V2000
    3.7300  -49.9910    5.9520 O   0  0  0  0  0  0  0  0  0  0  0  0
    2.9940  -49.1440    6.4970 C   0  0  0  0  0  0  0  0  0  0  0  0
    3.3590  -48.1330    7.1110 O   0  5  0  0  0  0  0  0  0  0  0  0
    1.4860  -49.4410    6.3920 C   0  0  0  0  0  0  0  0  0  0  0  0
   -0.3680  -50.7810    6.5130 C   0  0  0  0  0  0  0  0  0  0  0  0
   -1.2890  -51.8230    6.7200 C   0  0  0  0  0  0  0  0  0  0  0  0
   -2.6170  -51.5750    6.4060 C   0  0  0  0  0  0  0  0  0  0  0  0
   -3.0280  -50.3230    5.8870 C   0  0  0  0  0  0  0  0  0  0  0  0
   -2.1240  -49.2910    5.6810 C   0  0  0  0  0  0  0  0  0  0  0  0
   -0.7710  -49.4940    6.0030 C   0  0  0  0  0  0  0  0  0  0  0  0
    0.4160  -48.6660    5.9570 C   0  0  0  0  0  0  0  0  0  0  0  0
    0.4080  -47.2430    5.5270 C   0  0  0  0  0  0  0  0  0  0  0  0
    0.2290  -46.2620    6.7010 C   0  0  0  0  0  0  0  0  0  0  0  0
   -1.1290  -46.3650    7.3970 C   0  0  0  0  0  0  0  0  0  0  0  0
   -2.0580  -45.7670    6.4230 O   0  0  0  0  0  0  0  0  0  0  0  0
   -3.3150  -45.4140    6.7960 C   0  0  0  0  0  0  0  0  0  0  0  0
   -5.9680  -44.4330    7.2410 C   0  0  0  0  0  0  0  0  0  0  0  0
   -5.2390  -44.0620    6.1200 C   0  0  0  0  0  0  0  0  0  0  0  0
   -3.9370  -44.5400    5.8900 C   0  0  0  0  0  0  0  0  0  0  0  0
   -0.9800  -52.7890    7.1180 H   0  0  0  0  0  0  0  0  0  0  0  0
   -3.3680  -52.3510    6.5610 H   0  0  0  0  0  0  0  0  0  0  0  0
   -4.0830  -50.1780    5.6510 H   0  0  0  0  0  0  0  0  0  0  0  0
   -2.4680  -48.3370    5.2790 H   0  0  0  0  0  0  0  0  0  0  0  0
   -0.4440  -47.0870    4.8150 H   0  0  0  0  0  0  0  0  0  0  0  0
    1.3580  -46.9840    5.0010 H   0  0  0  0  0  0  0  0  0  0  0  0
    0.3360  -45.2190    6.3160 H   0  0  0  0  0  0  0  0  0  0  0  0
    1.0180  -46.4540    7.4680 H   0  0  0  0  0  0  0  0  0  0  0  0
   -1.1680  -45.7480    8.3190 H   0  0  0  0  0  0  0  0  0  0  0  0
   -1.4580  -47.4130    7.5530 H   0  0  0  0  0  0  0  0  0  0  0  0
   -3.4090  -44.2230    4.9960 H   0  0  0  0  0  0  0  0  0  0  0  0
   -5.6840  -43.3780    5.3930 H   0  0  0  0  0  0  0  0  0  0  0  0
   -6.9720  -44.0640    7.4200 H   0  0  0  0  0  0  0  0  0  0  0  0
    1.0160  -50.7240    6.7400 N   0  0  0  0  0  0  0  0  0  0  0  0
    1.5570  -51.5090    7.0820 H   0  0  0  0  0  0  0  0  0  0  0  0
   -4.9280  -46.8430    9.7940 C   0  0  0  0  0  0  0  0  0  0  0  0
   -5.8770  -45.9120    9.2940 N   0  0  0  0  0  0  0  0  0  0  0  0
   -5.3530  -45.3360    8.1290 C   0  0  0  0  0  0  0  0  0  0  0  0
   -4.0240  -45.8560    7.9410 C   0  0  0  0  0  0  0  0  0  0  0  0
   -3.7960  -46.8000    9.0070 C   0  0  0  0  0  0  0  0  0  0  0  0
   -6.8200  -45.8150    9.6310 H   0  0  0  0  0  0  0  0  0  0  0  0
   -2.9160  -47.3930    9.1590 H   0  0  0  0  0  0  0  0  0  0  0  0
   -5.1570  -47.4570   10.6480 H   0  0  0  0  0  0  0  0  0  0  0  0
  1  2  2  0  0  0  0
  2  3  1  0  0  0  0
  2  4  1  0  0  0  0
  4 11  2  0  0  0  0
  4 33  1  0  0  0  0
  5  6  2  0  0  0  0
  5 10  1  0  0  0  0
  5 33  1  0  0  0  0
  6  7  1  0  0  0  0
  6 20  1  0  0  0  0
  7  8  2  0  0  0  0
  7 21  1  0  0  0  0
  8  9  1  0  0  0  0
  8 22  1  0  0  0  0
  9 10  2  0  0  0  0
  9 23  1  0  0  0  0
 10 11  1  0  0  0  0
 11 12  1  0  0  0  0
 12 24  1  0  0  0  0
 12 25  1  0  0  0  0
 12 13  1  0  0  0  0
 13 14  1  0  0  0  0
 13 26  1  0  0  0  0
 13 27  1  0  0  0  0
 14 15  1  0  0  0  0
 14 28  1  0  0  0  0
 14 29  1  0  0  0  0
 15 16  1  0  0  0  0
 16 19  2  0  0  0  0
 16 38  1  0  0  0  0
 17 18  2  0  0  0  0
 17 32  1  0  0  0  0
 17 37  1  0  0  0  0
 18 19  1  0  0  0  0
 18 31  1  0  0  0  0
 19 30  1  0  0  0  0
 33 34  1  0  0  0  0
 35 36  1  0  0  0  0
 35 39  2  0  0  0  0
 35 42  1  0  0  0  0
 36 37  1  0  0  0  0
 36 40  1  0  0  0  0
 37 38  2  0  0  0  0
 38 39  1  0  0  0  0
 39 41  1  0  0  0  0
M  CHG  1   3  -1
M  END
$$$$
