18652-1
 OpenBabel04222415263D
Structure written by MMmdl.
 55 56  0  0  0  0  0  0  0  0999 V2000
   24.6640   10.2480   30.8280 C   0  0  0  0  0  0  0  0  0  0  0  0
   23.4770   10.9160   30.1610 C   0  0  0  0  0  0  0  0  0  0  0  0
   23.0990   10.3030   28.8240 C   0  0  0  0  0  0  0  0  0  0  0  0
   22.3110   10.9720   31.0870 O   0  0  0  0  0  0  0  0  0  0  0  0
   21.6740    9.8630   31.5100 C   0  0  0  0  0  0  0  0  0  0  0  0
   22.1020    8.6380   31.1210 N   0  0  0  0  0  0  0  0  0  0  0  0
   21.3560    7.5410   31.5060 C   0  0  0  0  0  0  0  0  0  0  0  0
   20.2070    7.6440   32.2830 C   0  0  0  0  0  0  0  0  0  0  0  0
   19.7700    8.9280   32.7080 C   0  0  0  0  0  0  0  0  0  0  0  0
   18.6190    9.0310   33.4490 N   0  0  0  0  0  0  0  0  0  0  0  0
   20.5250   10.0850   32.3330 C   0  0  0  0  0  0  0  0  0  0  0  0
   20.1790   11.4040   32.6950 C   0  0  0  0  0  0  0  0  0  0  0  0
   19.9380   12.5070   32.9600 N   0  0  0  0  0  0  0  0  0  0  0  0
   21.8910    6.3300   30.9970 N   0  0  0  0  0  0  0  0  0  0  0  0
   21.1590    5.1350   30.8310 C   0  0  0  0  0  0  0  0  0  0  0  0
   20.0460    4.9830   31.2890 O   0  0  0  0  0  0  0  0  0  0  0  0
   21.8410    4.1010   29.9510 C   0  0  0  0  0  0  0  0  0  0  0  0
   23.1750    3.6110   30.4290 C   0  0  0  0  0  0  0  0  0  0  0  0
   24.3670    4.2740   30.0070 C   0  0  0  0  0  0  0  0  0  0  0  0
   24.1120    5.4060   29.2360 O   0  0  0  0  0  0  0  0  0  0  0  0
   25.1840    6.3830   29.1440 C   0  0  0  0  0  0  0  0  0  0  0  0
   25.6230    3.7670   30.3110 C   0  0  0  0  0  0  0  0  0  0  0  0
   25.7520    2.5900   31.0750 C   0  0  0  0  0  0  0  0  0  0  0  0
   27.3710    1.9770   31.3380 S   0  0  0  0  0  0  0  0  0  0  0  0
   27.2830    0.7570   32.1770 O   0  0  0  0  0  0  0  0  0  0  0  0
   27.9960    1.6650   30.0270 O   0  0  0  0  0  0  0  0  0  0  0  0
   28.2180    3.2410   32.1730 C   0  0  0  0  0  0  0  0  0  0  0  0
   24.5860    1.9700   31.5440 C   0  0  0  0  0  0  0  0  0  0  0  0
   23.2990    2.4760   31.2090 C   0  0  0  0  0  0  0  0  0  0  0  0
   24.7840    0.8590   32.3180 O   0  0  0  0  0  0  0  0  0  0  0  0
   23.6310    0.2720   32.9890 C   0  0  0  0  0  0  0  0  0  0  0  0
   24.8860   10.7190   31.8060 H   0  0  0  0  0  0  0  0  0  0  0  0
   24.4850    9.1570   30.9830 H   0  0  0  0  0  0  0  0  0  0  0  0
   25.5630   10.3460   30.1710 H   0  0  0  0  0  0  0  0  0  0  0  0
   23.6270   12.0240   30.0730 H   0  0  0  0  0  0  0  0  0  0  0  0
   22.1900   10.7830   28.4050 H   0  0  0  0  0  0  0  0  0  0  0  0
   23.9380   10.4650   28.1040 H   0  0  0  0  0  0  0  0  0  0  0  0
   22.9230    9.2060   28.9120 H   0  0  0  0  0  0  0  0  0  0  0  0
   19.6260    6.7610   32.5540 H   0  0  0  0  0  0  0  0  0  0  0  0
   18.0990    8.1840   33.7440 H   0  0  0  0  0  0  0  0  0  0  0  0
   18.2580    9.9360   33.7490 H   0  0  0  0  0  0  0  0  0  0  0  0
   22.8240    6.4070   30.5320 H   0  0  0  0  0  0  0  0  0  0  0  0
   21.1520    3.2250   29.8380 H   0  0  0  0  0  0  0  0  0  0  0  0
   21.9760    4.5860   28.9410 H   0  0  0  0  0  0  0  0  0  0  0  0
   25.9470    6.0210   28.4210 H   0  0  0  0  0  0  0  0  0  0  0  0
   24.6460    7.2790   28.7590 H   0  0  0  0  0  0  0  0  0  0  0  0
   25.6250    6.5790   30.1460 H   0  0  0  0  0  0  0  0  0  0  0  0
   26.5160    4.2930   29.9540 H   0  0  0  0  0  0  0  0  0  0  0  0
   28.2900    4.1880   31.5740 H   0  0  0  0  0  0  0  0  0  0  0  0
   29.2740    2.9540   32.4230 H   0  0  0  0  0  0  0  0  0  0  0  0
   27.7220    3.5140   33.1390 H   0  0  0  0  0  0  0  0  0  0  0  0
   22.4040    1.9600   31.5590 H   0  0  0  0  0  0  0  0  0  0  0  0
   23.1620    1.0180   33.6650 H   0  0  0  0  0  0  0  0  0  0  0  0
   22.9140   -0.1380   32.2480 H   0  0  0  0  0  0  0  0  0  0  0  0
   24.1100   -0.5490   33.5760 H   0  0  0  0  0  0  0  0  0  0  0  0
  1  2  1  0  0  0  0
  1 32  1  0  0  0  0
  1 33  1  0  0  0  0
  1 34  1  0  0  0  0
  2  3  1  0  0  0  0
  2  4  1  0  0  0  0
  2 35  1  0  0  0  0
  3 36  1  0  0  0  0
  3 37  1  0  0  0  0
  3 38  1  0  0  0  0
  4  5  1  0  0  0  0
  5 11  2  0  0  0  0
  5  6  1  0  0  0  0
  6  7  2  0  0  0  0
  7  8  1  0  0  0  0
  7 14  1  0  0  0  0
  8  9  2  0  0  0  0
  8 39  1  0  0  0  0
  9 10  1  0  0  0  0
  9 11  1  0  0  0  0
 10 40  1  0  0  0  0
 10 41  1  0  0  0  0
 11 12  1  0  0  0  0
 12 13  3  0  0  0  0
 14 15  1  0  0  0  0
 14 42  1  0  0  0  0
 15 16  2  0  0  0  0
 15 17  1  0  0  0  0
 17 18  1  0  0  0  0
 17 43  1  0  0  0  0
 17 44  1  0  0  0  0
 18 29  2  0  0  0  0
 18 19  1  0  0  0  0
 19 20  1  0  0  0  0
 19 22  2  0  0  0  0
 20 21  1  0  0  0  0
 21 45  1  0  0  0  0
 21 46  1  0  0  0  0
 21 47  1  0  0  0  0
 22 23  1  0  0  0  0
 22 48  1  0  0  0  0
 23 24  1  0  0  0  0
 23 28  2  0  0  0  0
 24 25  2  0  0  0  0
 24 26  2  0  0  0  0
 24 27  1  0  0  0  0
 27 49  1  0  0  0  0
 27 50  1  0  0  0  0
 27 51  1  0  0  0  0
 28 29  1  0  0  0  0
 28 30  1  0  0  0  0
 29 52  1  0  0  0  0
 30 31  1  0  0  0  0
 31 53  1  0  0  0  0
 31 54  1  0  0  0  0
 31 55  1  0  0  0  0
M  END
$$$$
