60
 OpenBabel02232411163D
Structure written by MMmdl.
 43 45  0  0  0  0  0  0  0  0999 V2000
    3.8710  -50.0690    5.8990 O   0  0  0  0  0  0  0  0  0  0  0  0
    3.1410  -49.2390    6.4720 C   0  0  0  0  0  0  0  0  0  0  0  0
    3.4990  -48.2650    7.1470 O   0  5  0  0  0  0  0  0  0  0  0  0
    1.6430  -49.5430    6.3710 C   0  0  0  0  0  0  0  0  0  0  0  0
    1.2080  -51.1640    6.8930 S   0  0  0  0  0  0  0  0  0  0  0  0
   -0.4880  -50.9130    6.5730 C   0  0  0  0  0  0  0  0  0  0  0  0
   -1.5290  -51.8140    6.7730 C   0  0  0  0  0  0  0  0  0  0  0  0
   -2.8190  -51.4110    6.4280 C   0  0  0  0  0  0  0  0  0  0  0  0
   -3.0440  -50.1320    5.8910 C   0  0  0  0  0  0  0  0  0  0  0  0
   -1.9970  -49.2320    5.6980 C   0  0  0  0  0  0  0  0  0  0  0  0
   -0.6890  -49.6090    6.0470 C   0  0  0  0  0  0  0  0  0  0  0  0
    0.5590  -48.8370    5.9620 C   0  0  0  0  0  0  0  0  0  0  0  0
    0.5660  -47.4230    5.4700 C   0  0  0  0  0  0  0  0  0  0  0  0
    0.5360  -46.3920    6.6110 C   0  0  0  0  0  0  0  0  0  0  0  0
   -0.7780  -46.3790    7.3860 C   0  0  0  0  0  0  0  0  0  0  0  0
   -1.7330  -45.7910    6.4260 O   0  0  0  0  0  0  0  0  0  0  0  0
   -2.9940  -45.5130    6.8500 C   0  0  0  0  0  0  0  0  0  0  0  0
   -3.5300  -45.8790    8.0950 C   0  0  0  0  0  0  0  0  0  0  0  0
   -4.8520  -45.5250    8.3980 C   0  0  0  0  0  0  0  0  0  0  0  0
   -5.4570  -45.8880    9.7130 C   0  0  0  0  0  0  0  0  0  0  0  0
   -5.6010  -44.8270    7.4380 C   0  0  0  0  0  0  0  0  0  0  0  0
   -7.2490  -44.4540    7.7870 Cl  0  0  0  0  0  0  0  0  0  0  0  0
   -5.0750  -44.4570    6.1850 C   0  0  0  0  0  0  0  0  0  0  0  0
   -5.9240  -43.7710    5.1670 C   0  0  0  0  0  0  0  0  0  0  0  0
   -3.7560  -44.8020    5.8980 C   0  0  0  0  0  0  0  0  0  0  0  0
   -1.3640  -52.8090    7.1910 H   0  0  0  0  0  0  0  0  0  0  0  0
   -3.6610  -52.0870    6.5740 H   0  0  0  0  0  0  0  0  0  0  0  0
   -4.0630  -49.8480    5.6240 H   0  0  0  0  0  0  0  0  0  0  0  0
   -2.2170  -48.2470    5.2830 H   0  0  0  0  0  0  0  0  0  0  0  0
   -0.3330  -47.2440    4.8220 H   0  0  0  0  0  0  0  0  0  0  0  0
    1.4780  -47.2300    4.8530 H   0  0  0  0  0  0  0  0  0  0  0  0
    0.6800  -45.3720    6.1760 H   0  0  0  0  0  0  0  0  0  0  0  0
    1.3620  -46.6060    7.3330 H   0  0  0  0  0  0  0  0  0  0  0  0
   -0.7400  -45.6970    8.2630 H   0  0  0  0  0  0  0  0  0  0  0  0
   -1.1550  -47.3940    7.6330 H   0  0  0  0  0  0  0  0  0  0  0  0
   -2.9590  -46.4510    8.8200 H   0  0  0  0  0  0  0  0  0  0  0  0
   -5.8930  -44.9880   10.2090 H   0  0  0  0  0  0  0  0  0  0  0  0
   -6.2840  -46.6230    9.5580 H   0  0  0  0  0  0  0  0  0  0  0  0
   -4.7080  -46.3500   10.3950 H   0  0  0  0  0  0  0  0  0  0  0  0
   -5.3170  -43.4530    4.2880 H   0  0  0  0  0  0  0  0  0  0  0  0
   -6.7200  -44.4760    4.8180 H   0  0  0  0  0  0  0  0  0  0  0  0
   -6.4230  -42.8720    5.5970 H   0  0  0  0  0  0  0  0  0  0  0  0
   -3.3150  -44.5460    4.9400 H   0  0  0  0  0  0  0  0  0  0  0  0
  1  2  2  0  0  0  0
  2  3  1  0  0  0  0
  2  4  1  0  0  0  0
  4  5  1  0  0  0  0
  4 12  2  0  0  0  0
  5  6  1  0  0  0  0
  6  7  2  0  0  0  0
  6 11  1  0  0  0  0
  7  8  1  0  0  0  0
  7 26  1  0  0  0  0
  8  9  2  0  0  0  0
  8 27  1  0  0  0  0
  9 10  1  0  0  0  0
  9 28  1  0  0  0  0
 10 11  2  0  0  0  0
 10 29  1  0  0  0  0
 11 12  1  0  0  0  0
 12 13  1  0  0  0  0
 13 30  1  0  0  0  0
 13 31  1  0  0  0  0
 13 14  1  0  0  0  0
 14 15  1  0  0  0  0
 14 32  1  0  0  0  0
 14 33  1  0  0  0  0
 15 16  1  0  0  0  0
 15 34  1  0  0  0  0
 15 35  1  0  0  0  0
 16 17  1  0  0  0  0
 17 18  2  0  0  0  0
 17 25  1  0  0  0  0
 18 19  1  0  0  0  0
 18 36  1  0  0  0  0
 19 20  1  0  0  0  0
 19 21  2  0  0  0  0
 20 37  1  0  0  0  0
 20 38  1  0  0  0  0
 20 39  1  0  0  0  0
 21 22  1  0  0  0  0
 21 23  1  0  0  0  0
 23 24  1  0  0  0  0
 23 25  2  0  0  0  0
 24 40  1  0  0  0  0
 24 41  1  0  0  0  0
 24 42  1  0  0  0  0
 25 43  1  0  0  0  0
M  CHG  1   3  -1
M  END
$$$$
