CAT-4k
                    3D
 Schrodinger Suite 2022-3.
 45 48  0  0  1  0  0  0  0  0999 V2000
   11.7410   -2.5120    1.3450 C   0  0  0  0  0  0  0  0  0  0  0  0
   13.0250   -2.8800    0.7150 N   0  0  0  0  0  0  0  0  0  0  0  0
   14.2370   -2.7690    1.4050 C   0  0  0  0  0  0  0  0  0  0  0  0
   14.3820   -2.6310    2.7520 N   0  0  0  0  0  0  0  0  0  0  0  0
   15.2950   -2.9030    0.5200 N   0  3  0  0  0  0  0  0  0  0  0  0
   14.8200   -3.2760   -0.8700 C   0  0  2  0  0  0  0  0  0  0  0  0
   15.2380   -4.7020   -1.1730 C   0  0  0  0  0  0  0  0  0  0  0  0
   14.3300   -5.6490   -1.6670 C   0  0  0  0  0  0  0  0  0  0  0  0
   14.7220   -6.9840   -1.8120 C   0  0  0  0  0  0  0  0  0  0  0  0
   16.0190   -7.3790   -1.4720 C   0  0  0  0  0  0  0  0  0  0  0  0
   16.9470   -6.4220   -1.0480 C   0  0  0  0  0  0  0  0  0  0  0  0
   16.5620   -5.0880   -0.9040 C   0  0  0  0  0  0  0  0  0  0  0  0
   15.2510   -2.2090   -1.8600 C   0  0  0  0  0  0  0  0  0  0  0  0
   15.7470   -2.5470   -3.1230 C   0  0  0  0  0  0  0  0  0  0  0  0
   16.0470   -1.5290   -4.0370 C   0  0  0  0  0  0  0  0  0  0  0  0
   15.8540   -0.1880   -3.7060 C   0  0  0  0  0  0  0  0  0  0  0  0
   15.3580    0.1580   -2.4360 C   0  0  0  0  0  0  0  0  0  0  0  0
   15.1300    1.5760   -2.0700 C   0  0  0  0  0  0  0  0  0  0  0  0
   15.6080    2.0900   -0.8550 C   0  0  0  0  0  0  0  0  0  0  0  0
   15.3830    3.4400   -0.5470 C   0  0  0  0  0  0  0  0  0  0  0  0
   14.7060    4.2780   -1.3780 N   0  0  0  0  0  0  0  0  0  0  0  0
   14.2310    3.7710   -2.5460 C   0  0  0  0  0  0  0  0  0  0  0  0
   14.4230    2.4310   -2.9270 C   0  0  0  0  0  0  0  0  0  0  0  0
   15.0670   -0.8570   -1.5170 C   0  0  0  0  0  0  0  0  0  0  0  0
   13.2620   -3.1410   -0.7110 C   0  0  0  0  0  0  0  0  0  0  0  0
   12.3740   -3.1990   -1.5010 O   0  0  0  0  0  0  0  0  0  0  0  0
   11.7180   -1.4020    1.5120 H   0  0  0  0  0  0  0  0  0  0  0  0
   10.8920   -2.8160    0.6760 H   0  0  0  0  0  0  0  0  0  0  0  0
   11.6330   -3.0400    2.3320 H   0  0  0  0  0  0  0  0  0  0  0  0
   15.3540   -2.5140    3.1480 H   0  0  0  0  0  0  0  0  0  0  0  0
   16.2610   -3.1160    0.8760 H   0  0  0  0  0  0  0  0  0  0  0  0
   13.3130   -5.3640   -1.9470 H   0  0  0  0  0  0  0  0  0  0  0  0
   14.0020   -7.7230   -2.1810 H   0  0  0  0  0  0  0  0  0  0  0  0
   16.3030   -8.4330   -1.5190 H   0  0  0  0  0  0  0  0  0  0  0  0
   17.9700   -6.7150   -0.7990 H   0  0  0  0  0  0  0  0  0  0  0  0
   17.2930   -4.3500   -0.5690 H   0  0  0  0  0  0  0  0  0  0  0  0
   15.8980   -3.5930   -3.4010 H   0  0  0  0  0  0  0  0  0  0  0  0
   16.4360   -1.7860   -5.0260 H   0  0  0  0  0  0  0  0  0  0  0  0
   16.0950    0.5910   -4.4390 H   0  0  0  0  0  0  0  0  0  0  0  0
   16.1370    1.4440   -0.1560 H   0  0  0  0  0  0  0  0  0  0  0  0
   15.7550    3.8630    0.3990 H   0  0  0  0  0  0  0  0  0  0  0  0
   13.6740    4.4610   -3.2030 H   0  0  0  0  0  0  0  0  0  0  0  0
   14.0190    2.0660   -3.8750 H   0  0  0  0  0  0  0  0  0  0  0  0
   14.6980   -0.6010   -0.5250 H   0  0  0  0  0  0  0  0  0  0  0  0
   13.6500   -2.1630    3.3400 H   0  0  0  0  0  0  0  0  0  0  0  0
  1  2  1  0  0  0  0
  1 27  1  0  0  0  0
  1 28  1  0  0  0  0
  1 29  1  0  0  0  0
  2  3  1  0  0  0  0
  2 25  1  0  0  0  0
  3  4  1  0  0  0  0
  3  5  2  0  0  0  0
  4 30  1  0  0  0  0
  4 45  1  0  0  0  0
  5  6  1  0  0  0  0
  5 31  1  0  0  0  0
  6  7  1  0  0  0  0
  6 13  1  0  0  0  0
  6 25  1  0  0  0  0
  7  8  2  0  0  0  0
  7 12  1  0  0  0  0
  8  9  1  0  0  0  0
  8 32  1  0  0  0  0
  9 10  2  0  0  0  0
  9 33  1  0  0  0  0
 10 11  1  0  0  0  0
 10 34  1  0  0  0  0
 11 12  2  0  0  0  0
 11 35  1  0  0  0  0
 12 36  1  0  0  0  0
 13 14  2  0  0  0  0
 13 24  1  0  0  0  0
 14 15  1  0  0  0  0
 14 37  1  0  0  0  0
 15 16  2  0  0  0  0
 15 38  1  0  0  0  0
 16 17  1  0  0  0  0
 16 39  1  0  0  0  0
 17 18  1  0  0  0  0
 17 24  2  0  0  0  0
 18 19  2  0  0  0  0
 18 23  1  0  0  0  0
 19 20  1  0  0  0  0
 19 40  1  0  0  0  0
 20 21  2  0  0  0  0
 20 41  1  0  0  0  0
 21 22  1  0  0  0  0
 22 23  2  0  0  0  0
 22 42  1  0  0  0  0
 23 43  1  0  0  0  0
 24 44  1  0  0  0  0
 25 26  2  0  0  0  0
M  CHG  1   5   1
M  END
$$$$
