57
 OpenBabel02232411163D
Structure written by MMmdl.
 47 50  0  0  0  0  0  0  0  0999 V2000
    3.4910  -48.4320    7.0510 O   0  0  0  0  0  0  0  0  0  0  0  0
    3.1240  -49.3050    6.2510 C   0  0  0  0  0  0  0  0  0  0  0  0
    3.8390  -49.9300    5.4450 O   0  5  0  0  0  0  0  0  0  0  0  0
    1.6340  -49.7000    6.2320 C   0  0  0  0  0  0  0  0  0  0  0  0
   -0.1710  -51.1160    6.3110 C   0  0  0  0  0  0  0  0  0  0  0  0
   -1.0580  -52.1980    6.4670 C   0  0  0  0  0  0  0  0  0  0  0  0
   -2.4120  -51.9490    6.3010 C   0  0  0  0  0  0  0  0  0  0  0  0
   -2.8890  -50.6570    5.9730 C   0  0  0  0  0  0  0  0  0  0  0  0
   -2.0230  -49.5850    5.8170 C   0  0  0  0  0  0  0  0  0  0  0  0
   -0.6450  -49.7920    5.9950 C   0  0  0  0  0  0  0  0  0  0  0  0
    0.5100  -48.9220    5.9690 C   0  0  0  0  0  0  0  0  0  0  0  0
    0.3910  -47.4440    5.8310 C   0  0  0  0  0  0  0  0  0  0  0  0
   -0.0330  -46.8720    7.2000 C   0  0  0  0  0  0  0  0  0  0  0  0
   -0.7490  -45.5310    7.1500 C   0  0  0  0  0  0  0  0  0  0  0  0
   -2.1060  -45.6360    6.5930 O   0  0  0  0  0  0  0  0  0  0  0  0
   -3.1550  -45.7940    7.4610 C   0  0  0  0  0  0  0  0  0  0  0  0
   -5.4450  -45.9620    9.0820 C   0  0  0  0  0  0  0  0  0  0  0  0
   -4.2900  -46.6140    9.4340 C   0  0  0  0  0  0  0  0  0  0  0  0
   -3.1250  -46.5310    8.6270 C   0  0  0  0  0  0  0  0  0  0  0  0
   -0.7040  -53.1980    6.7200 H   0  0  0  0  0  0  0  0  0  0  0  0
   -3.1350  -52.7560    6.4320 H   0  0  0  0  0  0  0  0  0  0  0  0
   -3.9640  -50.5140    5.8450 H   0  0  0  0  0  0  0  0  0  0  0  0
   -2.4140  -48.5960    5.5690 H   0  0  0  0  0  0  0  0  0  0  0  0
   -0.3980  -47.1990    5.0750 H   0  0  0  0  0  0  0  0  0  0  0  0
    1.3500  -46.9790    5.5040 H   0  0  0  0  0  0  0  0  0  0  0  0
    0.8720  -46.7520    7.8400 H   0  0  0  0  0  0  0  0  0  0  0  0
   -0.7160  -47.6110    7.6880 H   0  0  0  0  0  0  0  0  0  0  0  0
   -0.3040  -44.8350    6.4060 H   0  0  0  0  0  0  0  0  0  0  0  0
   -0.8310  -45.0670    8.1570 H   0  0  0  0  0  0  0  0  0  0  0  0
   -2.2500  -47.0810    8.9450 H   0  0  0  0  0  0  0  0  0  0  0  0
   -5.5100  -45.2280    7.8570 C   0  0  0  0  0  0  0  0  0  0  0  0
   -4.3630  -45.1330    7.0260 C   0  0  0  0  0  0  0  0  0  0  0  0
   -4.4450  -44.4310    5.7870 C   0  0  0  0  0  0  0  0  0  0  0  0
   -5.6280  -43.8530    5.3920 C   0  0  0  0  0  0  0  0  0  0  0  0
   -6.7810  -43.9550    6.2180 C   0  0  0  0  0  0  0  0  0  0  0  0
   -6.7250  -44.6130    7.4220 C   0  0  0  0  0  0  0  0  0  0  0  0
   -3.5610  -44.3830    5.1460 H   0  0  0  0  0  0  0  0  0  0  0  0
   -5.7000  -43.3190    4.4470 H   0  0  0  0  0  0  0  0  0  0  0  0
   -7.7160  -43.5100    5.8840 H   0  0  0  0  0  0  0  0  0  0  0  0
   -7.6100  -44.6950    8.0540 H   0  0  0  0  0  0  0  0  0  0  0  0
   -4.2480  -47.2130   10.3460 H   0  0  0  0  0  0  0  0  0  0  0  0
   -6.3310  -46.0090    9.7140 H   0  0  0  0  0  0  0  0  0  0  0  0
    2.0470  -52.1890    6.8210 C   0  0  0  0  0  0  0  0  0  0  0  0
    1.8630  -53.0550    6.1240 H   0  0  0  0  0  0  0  0  0  0  0  0
    3.1420  -51.9540    6.8020 H   0  0  0  0  0  0  0  0  0  0  0  0
    1.7730  -52.5310    7.8600 H   0  0  0  0  0  0  0  0  0  0  0  0
    1.2280  -51.0350    6.4300 N   0  0  0  0  0  0  0  0  0  0  0  0
  1  2  2  0  0  0  0
  2  3  1  0  0  0  0
  2  4  1  0  0  0  0
  4 11  2  0  0  0  0
  4 47  1  0  0  0  0
  5  6  2  0  0  0  0
  5 10  1  0  0  0  0
  5 47  1  0  0  0  0
  6  7  1  0  0  0  0
  6 20  1  0  0  0  0
  7  8  2  0  0  0  0
  7 21  1  0  0  0  0
  8  9  1  0  0  0  0
  8 22  1  0  0  0  0
  9 10  2  0  0  0  0
  9 23  1  0  0  0  0
 10 11  1  0  0  0  0
 11 12  1  0  0  0  0
 12 24  1  0  0  0  0
 12 25  1  0  0  0  0
 12 13  1  0  0  0  0
 13 14  1  0  0  0  0
 13 26  1  0  0  0  0
 13 27  1  0  0  0  0
 14 15  1  0  0  0  0
 14 28  1  0  0  0  0
 14 29  1  0  0  0  0
 15 16  1  0  0  0  0
 16 19  2  0  0  0  0
 16 32  1  0  0  0  0
 17 18  2  0  0  0  0
 17 31  1  0  0  0  0
 17 42  1  0  0  0  0
 18 19  1  0  0  0  0
 18 41  1  0  0  0  0
 19 30  1  0  0  0  0
 31 32  2  0  0  0  0
 31 36  1  0  0  0  0
 32 33  1  0  0  0  0
 33 34  2  0  0  0  0
 33 37  1  0  0  0  0
 34 35  1  0  0  0  0
 34 38  1  0  0  0  0
 35 36  2  0  0  0  0
 35 39  1  0  0  0  0
 36 40  1  0  0  0  0
 43 44  1  0  0  0  0
 43 45  1  0  0  0  0
 43 46  1  0  0  0  0
 43 47  1  0  0  0  0
M  CHG  1   3  -1
M  END
$$$$
