p38a_3fmk
 OpenBabel02232411163D
Structure written by MMmdl.
 46 49  0  0  1  0  0  0  0  0999 V2000
   37.4290   36.0810   18.1780 C   0  0  0  0  0  0  0  0  0  0  0  0
   38.2480   36.5370   17.1490 C   0  0  0  0  0  0  0  0  0  0  0  0
   33.9590   34.9370   23.6170 C   0  0  0  0  0  0  0  0  0  0  0  0
   36.2840   36.4660   15.6610 C   0  0  0  0  0  0  0  0  0  0  0  0
   34.6650   39.3510   21.5710 C   0  0  0  0  0  0  0  0  0  0  0  0
   33.9150   38.8700   26.3500 C   0  0  1  0  0  0  0  0  0  0  0  0
   33.4970   39.8280   27.5080 C   0  0  0  0  0  0  0  0  0  0  0  0
   34.2470   39.0760   23.8620 C   0  0  0  0  0  0  0  0  0  0  0  0
   34.5480   35.0690   21.1660 C   0  0  0  0  0  0  0  0  0  0  0  0
   34.9720   35.9640   20.0580 C   0  0  0  0  0  0  0  0  0  0  0  0
   34.9940   37.3150   20.1340 C   0  0  0  0  0  0  0  0  0  0  0  0
   36.0630   35.7960   17.9650 C   0  0  0  0  0  0  0  0  0  0  0  0
   35.4850   35.9960   16.7080 C   0  0  0  0  0  0  0  0  0  0  0  0
   34.6770   37.9420   21.3870 C   0  0  0  0  0  0  0  0  0  0  0  0
   34.3810   37.1400   22.5300 C   0  0  0  0  0  0  0  0  0  0  0  0
   34.0910   39.6630   25.0950 N   0  0  0  0  0  0  0  0  0  0  0  0
   37.6330   36.7300   15.9040 C   0  0  0  0  0  0  0  0  0  0  0  0
   38.3660   37.2280   14.9110 F   0  0  0  0  0  0  0  0  0  0  0  0
   37.9300   35.9120   19.3950 F   0  0  0  0  0  0  0  0  0  0  0  0
   35.2950   35.1730   18.9560 O   0  0  0  0  0  0  0  0  0  0  0  0
   34.4060   33.8680   21.0880 O   0  0  0  0  0  0  0  0  0  0  0  0
   34.2990   35.7430   22.4120 N   0  0  0  0  0  0  0  0  0  0  0  0
   34.1740   37.7000   23.7650 N   0  0  0  0  0  0  0  0  0  0  0  0
   34.4610   39.9330   22.7610 N   0  0  0  0  0  0  0  0  0  0  0  0
   35.1650   38.0600   26.6940 C   0  0  0  0  0  0  0  0  0  0  0  0
   34.6310   40.4940   28.1860 N   0  0  0  0  0  0  0  0  0  0  0  0
   35.1180   40.0810   29.3900 N   0  0  0  0  0  0  0  0  0  0  0  0
   36.1670   40.9160   29.6350 C   0  0  0  0  0  0  0  0  0  0  0  0
   36.2960   41.8250   28.5500 N   0  0  0  0  0  0  0  0  0  0  0  0
   35.3640   41.5470   27.6940 N   0  0  0  0  0  0  0  0  0  0  0  0
   39.3050   36.7690   17.3110 H   0  0  0  0  0  0  0  0  0  0  0  0
   34.7430   35.0770   24.4080 H   0  0  0  0  0  0  0  0  0  0  0  0
   32.9710   35.2710   24.0380 H   0  0  0  0  0  0  0  0  0  0  0  0
   33.8920   33.8500   23.3510 H   0  0  0  0  0  0  0  0  0  0  0  0
   35.8400   36.6360   14.6780 H   0  0  0  0  0  0  0  0  0  0  0  0
   34.8260   40.0160   20.7050 H   0  0  0  0  0  0  0  0  0  0  0  0
   33.0400   38.1640   26.1980 H   0  0  0  0  0  0  0  0  0  0  0  0
   32.7930   40.6200   27.1230 H   0  0  0  0  0  0  0  0  0  0  0  0
   32.9330   39.2080   28.2700 H   0  0  0  0  0  0  0  0  0  0  0  0
   35.2600   37.9520   19.2880 H   0  0  0  0  0  0  0  0  0  0  0  0
   34.4210   35.8010   16.5400 H   0  0  0  0  0  0  0  0  0  0  0  0
   34.0930   40.6970   25.1840 H   0  0  0  0  0  0  0  0  0  0  0  0
   35.2810   37.2140   25.9710 H   0  0  0  0  0  0  0  0  0  0  0  0
   36.0810   38.6820   26.6650 H   0  0  0  0  0  0  0  0  0  0  0  0
   35.0450   37.6110   27.7090 H   0  0  0  0  0  0  0  0  0  0  0  0
   36.8090   40.9080   30.5160 H   0  0  0  0  0  0  0  0  0  0  0  0
  1  2  2  0  0  0  0
  1 12  1  0  0  0  0
  1 19  1  0  0  0  0
  2 17  1  0  0  0  0
  2 31  1  0  0  0  0
  3 22  1  0  0  0  0
  3 32  1  0  0  0  0
  3 33  1  0  0  0  0
  3 34  1  0  0  0  0
  4 13  1  0  0  0  0
  4 17  2  0  0  0  0
  4 35  1  0  0  0  0
  5 14  2  0  0  0  0
  5 24  1  0  0  0  0
  5 36  1  0  0  0  0
  6  7  1  0  0  0  0
  6 16  1  0  0  0  0
  6 25  1  0  0  0  0
  6 37  1  6  0  0  0
  7 26  1  0  0  0  0
  7 38  1  0  0  0  0
  7 39  1  0  0  0  0
  8 16  1  0  0  0  0
  8 23  1  0  0  0  0
  8 24  2  0  0  0  0
  9 10  1  0  0  0  0
  9 21  2  0  0  0  0
  9 22  1  0  0  0  0
 10 11  2  0  0  0  0
 10 20  1  0  0  0  0
 11 14  1  0  0  0  0
 11 40  1  0  0  0  0
 12 13  2  0  0  0  0
 12 20  1  0  0  0  0
 13 41  1  0  0  0  0
 14 15  1  0  0  0  0
 15 22  1  0  0  0  0
 15 23  2  0  0  0  0
 16 42  1  0  0  0  0
 17 18  1  0  0  0  0
 25 43  1  0  0  0  0
 25 44  1  0  0  0  0
 25 45  1  0  0  0  0
 26 27  1  0  0  0  0
 26 30  1  0  0  0  0
 27 28  2  0  0  0  0
 28 29  1  0  0  0  0
 28 46  1  0  0  0  0
 29 30  2  0  0  0  0
M  END
$$$$
