18639-1
 OpenBabel02232411163D
Structure written by MMmdl.
 48 49  0  0  0  0  0  0  0  0999 V2000
   24.4350   10.9330   30.7590 C   0  0  0  0  0  0  0  0  0  0  0  0
   23.1050   11.2690   30.1180 C   0  0  0  0  0  0  0  0  0  0  0  0
   22.0300   11.3270   31.1300 O   0  0  0  0  0  0  0  0  0  0  0  0
   21.4480   10.1760   31.5400 C   0  0  0  0  0  0  0  0  0  0  0  0
   21.9310    8.9880   31.1070 N   0  0  0  0  0  0  0  0  0  0  0  0
   21.2390    7.8440   31.4750 C   0  0  0  0  0  0  0  0  0  0  0  0
   20.1030    7.8740   32.2750 C   0  0  0  0  0  0  0  0  0  0  0  0
   19.6100    9.1250   32.7360 C   0  0  0  0  0  0  0  0  0  0  0  0
   18.4750    9.1600   33.5040 N   0  0  0  0  0  0  0  0  0  0  0  0
   20.2970   10.3270   32.3710 C   0  0  0  0  0  0  0  0  0  0  0  0
   19.8810   11.6240   32.7350 C   0  0  0  0  0  0  0  0  0  0  0  0
   19.5910   12.7170   32.9940 N   0  0  0  0  0  0  0  0  0  0  0  0
   21.8300    6.6820   30.9260 N   0  0  0  0  0  0  0  0  0  0  0  0
   21.2770    5.3850   30.8870 C   0  0  0  0  0  0  0  0  0  0  0  0
   20.2090    5.1040   31.3870 O   0  0  0  0  0  0  0  0  0  0  0  0
   22.1170    4.3990   30.0820 C   0  0  0  0  0  0  0  0  0  0  0  0
   23.5000    4.1730   30.6190 C   0  0  0  0  0  0  0  0  0  0  0  0
   24.5690    5.0600   30.2770 C   0  0  0  0  0  0  0  0  0  0  0  0
   24.1720    6.1020   29.4490 O   0  0  0  0  0  0  0  0  0  0  0  0
   25.0970    7.2120   29.2720 C   0  0  0  0  0  0  0  0  0  0  0  0
   25.8650    4.8450   30.7200 C   0  0  0  0  0  0  0  0  0  0  0  0
   26.1400    3.7370   31.5490 C   0  0  0  0  0  0  0  0  0  0  0  0
   27.5100    3.5120   32.0180 N   0  3  0  0  0  0  0  0  0  0  0  0
   27.6890    2.6970   32.9090 O   0  5  0  0  0  0  0  0  0  0  0  0
   28.4190    4.1450   31.4940 O   0  0  0  0  0  0  0  0  0  0  0  0
   25.0950    2.8500   31.8980 C   0  0  0  0  0  0  0  0  0  0  0  0
   23.7830    3.0760   31.4180 C   0  0  0  0  0  0  0  0  0  0  0  0
   25.4840    1.8200   32.7000 O   0  0  0  0  0  0  0  0  0  0  0  0
   24.5130    0.7650   32.9680 C   0  0  0  0  0  0  0  0  0  0  0  0
   25.2230   10.8810   29.9660 H   0  0  0  0  0  0  0  0  0  0  0  0
   24.7290   11.7070   31.4990 H   0  0  0  0  0  0  0  0  0  0  0  0
   24.3980    9.9400   31.2650 H   0  0  0  0  0  0  0  0  0  0  0  0
   23.0660   12.3230   29.7500 H   0  0  0  0  0  0  0  0  0  0  0  0
   22.8250   10.5420   29.3220 H   0  0  0  0  0  0  0  0  0  0  0  0
   19.5740    6.9560   32.5370 H   0  0  0  0  0  0  0  0  0  0  0  0
   17.9770    8.2850   33.7600 H   0  0  0  0  0  0  0  0  0  0  0  0
   18.0620   10.0440   33.8020 H   0  0  0  0  0  0  0  0  0  0  0  0
   22.7330    6.8450   30.4120 H   0  0  0  0  0  0  0  0  0  0  0  0
   21.5680    3.4190   30.0460 H   0  0  0  0  0  0  0  0  0  0  0  0
   22.1980    4.7970   29.0310 H   0  0  0  0  0  0  0  0  0  0  0  0
   25.4590    7.5860   30.2530 H   0  0  0  0  0  0  0  0  0  0  0  0
   25.9250    6.8870   28.6080 H   0  0  0  0  0  0  0  0  0  0  0  0
   24.4400    7.9640   28.7740 H   0  0  0  0  0  0  0  0  0  0  0  0
   26.6860    5.5100   30.4260 H   0  0  0  0  0  0  0  0  0  0  0  0
   22.9880    2.3710   31.6720 H   0  0  0  0  0  0  0  0  0  0  0  0
   25.1300    0.0420   33.5540 H   0  0  0  0  0  0  0  0  0  0  0  0
   23.6750    1.1620   33.5800 H   0  0  0  0  0  0  0  0  0  0  0  0
   24.1660    0.3110   32.0140 H   0  0  0  0  0  0  0  0  0  0  0  0
  1  2  1  0  0  0  0
  1 30  1  0  0  0  0
  1 31  1  0  0  0  0
  1 32  1  0  0  0  0
  2  3  1  0  0  0  0
  2 33  1  0  0  0  0
  2 34  1  0  0  0  0
  3  4  1  0  0  0  0
  4 10  2  0  0  0  0
  4  5  1  0  0  0  0
  5  6  2  0  0  0  0
  6  7  1  0  0  0  0
  6 13  1  0  0  0  0
  7  8  2  0  0  0  0
  7 35  1  0  0  0  0
  8  9  1  0  0  0  0
  8 10  1  0  0  0  0
  9 36  1  0  0  0  0
  9 37  1  0  0  0  0
 10 11  1  0  0  0  0
 11 12  3  0  0  0  0
 13 14  1  0  0  0  0
 13 38  1  0  0  0  0
 14 15  2  0  0  0  0
 14 16  1  0  0  0  0
 16 17  1  0  0  0  0
 16 39  1  0  0  0  0
 16 40  1  0  0  0  0
 17 27  2  0  0  0  0
 17 18  1  0  0  0  0
 18 19  1  0  0  0  0
 18 21  2  0  0  0  0
 19 20  1  0  0  0  0
 20 41  1  0  0  0  0
 20 42  1  0  0  0  0
 20 43  1  0  0  0  0
 21 22  1  0  0  0  0
 21 44  1  0  0  0  0
 22 23  1  0  0  0  0
 22 26  2  0  0  0  0
 23 24  1  0  0  0  0
 23 25  2  0  0  0  0
 26 27  1  0  0  0  0
 26 28  1  0  0  0  0
 27 45  1  0  0  0  0
 28 29  1  0  0  0  0
 29 46  1  0  0  0  0
 29 47  1  0  0  0  0
 29 48  1  0  0  0  0
M  CHG  2  23   1  24  -1
M  END
$$$$
