p38a_2t
 OpenBabel02232411163D
Structure written by MMmdl.
 47 50  0  0  0  0  0  0  0  0999 V2000
   38.2720   36.5340   17.1560 C   0  0  0  0  0  0  0  0  0  0  0  0
   34.5090   35.0630   21.1890 C   0  0  0  0  0  0  0  0  0  0  0  0
   37.4790   36.0750   18.2060 C   0  0  0  0  0  0  0  0  0  0  0  0
   33.9350   39.1310   23.7680 C   0  0  0  0  0  0  0  0  0  0  0  0
   34.6000   37.9420   21.3670 C   0  0  0  0  0  0  0  0  0  0  0  0
   35.0000   37.2950   20.1470 C   0  0  0  0  0  0  0  0  0  0  0  0
   37.6310   36.7070   15.9220 C   0  0  0  0  0  0  0  0  0  0  0  0
   36.2790   36.4250   15.7080 C   0  0  0  0  0  0  0  0  0  0  0  0
   35.5080   35.9520   16.7750 C   0  0  0  0  0  0  0  0  0  0  0  0
   34.2110   37.1670   22.4980 C   0  0  0  0  0  0  0  0  0  0  0  0
   34.5890   39.3560   21.5270 C   0  0  0  0  0  0  0  0  0  0  0  0
   34.9880   35.9440   20.0930 C   0  0  0  0  0  0  0  0  0  0  0  0
   36.1150   35.7670   18.0190 C   0  0  0  0  0  0  0  0  0  0  0  0
   38.0030   35.9260   19.4150 F   0  0  0  0  0  0  0  0  0  0  0  0
   35.3910   35.1290   19.0360 O   0  0  0  0  0  0  0  0  0  0  0  0
   34.2780   39.9620   22.6830 N   0  0  0  0  0  0  0  0  0  0  0  0
   34.4320   33.8560   21.1510 O   0  0  0  0  0  0  0  0  0  0  0  0
   34.1350   35.7620   22.3980 N   0  0  0  0  0  0  0  0  0  0  0  0
   33.9080   37.7480   23.6990 N   0  0  0  0  0  0  0  0  0  0  0  0
   33.5610   39.7350   24.9430 N   0  0  0  0  0  0  0  0  0  0  0  0
   39.3270   36.7840   17.2970 H   0  0  0  0  0  0  0  0  0  0  0  0
   35.3130   37.9220   19.3090 H   0  0  0  0  0  0  0  0  0  0  0  0
   35.8140   36.5830   14.7320 H   0  0  0  0  0  0  0  0  0  0  0  0
   34.4420   35.7470   16.6300 H   0  0  0  0  0  0  0  0  0  0  0  0
   34.8420   40.0040   20.6720 H   0  0  0  0  0  0  0  0  0  0  0  0
   33.6730   40.7610   25.0570 H   0  0  0  0  0  0  0  0  0  0  0  0
   38.3380   37.2060   14.9110 F   0  0  0  0  0  0  0  0  0  0  0  0
   32.0240   38.9780   28.3570 C   0  0  0  0  0  0  0  0  0  0  0  0
   32.2200   39.6900   27.0120 C   0  0  0  0  0  0  0  0  0  0  0  0
   33.3060   38.9590   26.1960 C   0  0  0  0  0  0  0  0  0  0  0  0
   34.6060   38.8330   27.0200 C   0  0  0  0  0  0  0  0  0  0  0  0
   34.2990   38.1690   28.3680 C   0  0  0  0  0  0  0  0  0  0  0  0
   33.2650   38.8790   29.0900 O   0  0  0  0  0  0  0  0  0  0  0  0
   31.6050   37.9550   28.2060 H   0  0  0  0  0  0  0  0  0  0  0  0
   31.3880   39.5790   29.0460 H   0  0  0  0  0  0  0  0  0  0  0  0
   32.5230   40.7490   27.1880 H   0  0  0  0  0  0  0  0  0  0  0  0
   31.2610   39.6880   26.4400 H   0  0  0  0  0  0  0  0  0  0  0  0
   32.9290   37.9340   25.9200 H   0  0  0  0  0  0  0  0  0  0  0  0
   35.3470   38.2110   26.4630 H   0  0  0  0  0  0  0  0  0  0  0  0
   35.0480   39.8450   27.1840 H   0  0  0  0  0  0  0  0  0  0  0  0
   33.9750   37.1110   28.2270 H   0  0  0  0  0  0  0  0  0  0  0  0
   35.1660   38.2430   29.0630 H   0  0  0  0  0  0  0  0  0  0  0  0
   33.6430   34.9570   23.5610 C   0  0  0  0  0  0  0  0  0  0  0  0
   33.3480   35.6320   24.4280 H   0  0  0  0  0  0  0  0  0  0  0  0
   32.7090   34.3900   23.2570 H   0  0  0  0  0  0  0  0  0  0  0  0
   34.6740   34.0230   24.0120 C   0  0  0  0  0  0  0  0  0  0  0  0
   35.4910   33.2800   24.3510 N   0  0  0  0  0  0  0  0  0  0  0  0
  1  3  2  0  0  0  0
  1  7  1  0  0  0  0
  1 21  1  0  0  0  0
  2 12  1  0  0  0  0
  2 17  2  0  0  0  0
  2 18  1  0  0  0  0
  3 13  1  0  0  0  0
  3 14  1  0  0  0  0
  4 16  2  0  0  0  0
  4 19  1  0  0  0  0
  4 20  1  0  0  0  0
  5  6  1  0  0  0  0
  5 10  1  0  0  0  0
  5 11  2  0  0  0  0
  6 12  2  0  0  0  0
  6 22  1  0  0  0  0
  7  8  2  0  0  0  0
  7 27  1  0  0  0  0
  8  9  1  0  0  0  0
  8 23  1  0  0  0  0
  9 13  2  0  0  0  0
  9 24  1  0  0  0  0
 10 18  1  0  0  0  0
 10 19  2  0  0  0  0
 11 16  1  0  0  0  0
 11 25  1  0  0  0  0
 12 15  1  0  0  0  0
 13 15  1  0  0  0  0
 18 43  1  0  0  0  0
 20 26  1  0  0  0  0
 20 30  1  0  0  0  0
 28 29  1  0  0  0  0
 28 33  1  0  0  0  0
 28 34  1  0  0  0  0
 28 35  1  0  0  0  0
 29 30  1  0  0  0  0
 29 36  1  0  0  0  0
 29 37  1  0  0  0  0
 30 31  1  0  0  0  0
 30 38  1  0  0  0  0
 31 32  1  0  0  0  0
 31 39  1  0  0  0  0
 31 40  1  0  0  0  0
 32 33  1  0  0  0  0
 32 41  1  0  0  0  0
 32 42  1  0  0  0  0
 43 44  1  0  0  0  0
 43 45  1  0  0  0  0
 43 46  1  0  0  0  0
 46 47  3  0  0  0  0
M  END
$$$$
