CAT-4a
                    3D
 Schrodinger Suite 2022-3.
 46 49  0  0  1  0  0  0  0  0999 V2000
   11.7960   -2.4410    1.2960 C   0  0  0  0  0  0  0  0  0  0  0  0
   13.0790   -2.8480    0.6880 N   0  0  0  0  0  0  0  0  0  0  0  0
   14.2760   -2.7690    1.4100 C   0  0  0  0  0  0  0  0  0  0  0  0
   14.3900   -2.6590    2.7650 N   0  0  0  0  0  0  0  0  0  0  0  0
   15.3500   -2.9140    0.5500 N   0  3  0  0  0  0  0  0  0  0  0  0
   14.9050   -3.2360   -0.8630 C   0  0  2  0  0  0  0  0  0  0  0  0
   15.3060   -4.6600   -1.1920 C   0  0  0  0  0  0  0  0  0  0  0  0
   16.6200   -5.0700   -0.9080 C   0  0  0  0  0  0  0  0  0  0  0  0
   16.9890   -6.4070   -1.0630 C   0  0  0  0  0  0  0  0  0  0  0  0
   16.0530   -7.3430   -1.5150 C   0  0  0  0  0  0  0  0  0  0  0  0
   14.7690   -6.9250   -1.8720 C   0  0  0  0  0  0  0  0  0  0  0  0
   14.3930   -5.5860   -1.7160 C   0  0  0  0  0  0  0  0  0  0  0  0
   15.3940   -2.1420   -1.7950 C   0  0  0  0  0  0  0  0  0  0  0  0
   16.0360   -2.4370   -3.0010 C   0  0  0  0  0  0  0  0  0  0  0  0
   16.4110   -1.3890   -3.8520 C   0  0  0  0  0  0  0  0  0  0  0  0
   16.1440   -0.0620   -3.5170 C   0  0  0  0  0  0  0  0  0  0  0  0
   15.5030    0.2440   -2.3010 C   0  0  0  0  0  0  0  0  0  0  0  0
   15.2060    1.6440   -1.9230 C   0  0  0  0  0  0  0  0  0  0  0  0
   14.5220    2.4880   -2.8130 C   0  0  0  0  0  0  0  0  0  0  0  0
   14.2290    3.8040   -2.4430 C   0  0  0  0  0  0  0  0  0  0  0  0
   14.6180    4.2870   -1.1890 C   0  0  0  0  0  0  0  0  0  0  0  0
   15.3020    3.4510   -0.3010 C   0  0  0  0  0  0  0  0  0  0  0  0
   15.5900    2.1330   -0.6640 C   0  0  0  0  0  0  0  0  0  0  0  0
   15.1370   -0.8030   -1.4470 C   0  0  0  0  0  0  0  0  0  0  0  0
   13.3480   -3.0770   -0.7390 C   0  0  0  0  0  0  0  0  0  0  0  0
   12.4790   -3.1020   -1.5510 O   0  0  0  0  0  0  0  0  0  0  0  0
   11.8470   -1.3510    1.5610 H   0  0  0  0  0  0  0  0  0  0  0  0
   10.9580   -2.6200    0.5710 H   0  0  0  0  0  0  0  0  0  0  0  0
   11.6090   -3.0410    2.2290 H   0  0  0  0  0  0  0  0  0  0  0  0
   15.3570   -2.5390    3.1750 H   0  0  0  0  0  0  0  0  0  0  0  0
   16.3060   -3.1440    0.9220 H   0  0  0  0  0  0  0  0  0  0  0  0
   17.3570   -4.3470   -0.5500 H   0  0  0  0  0  0  0  0  0  0  0  0
   18.0030   -6.7190   -0.8000 H   0  0  0  0  0  0  0  0  0  0  0  0
   16.3220   -8.4020   -1.5660 H   0  0  0  0  0  0  0  0  0  0  0  0
   14.0450   -7.6480   -2.2630 H   0  0  0  0  0  0  0  0  0  0  0  0
   13.3850   -5.2840   -2.0070 H   0  0  0  0  0  0  0  0  0  0  0  0
   16.2440   -3.4720   -3.2820 H   0  0  0  0  0  0  0  0  0  0  0  0
   16.9240   -1.6120   -4.7920 H   0  0  0  0  0  0  0  0  0  0  0  0
   16.4410    0.7410   -4.2000 H   0  0  0  0  0  0  0  0  0  0  0  0
   14.2080    2.1130   -3.7910 H   0  0  0  0  0  0  0  0  0  0  0  0
   13.6900    4.4550   -3.1390 H   0  0  0  0  0  0  0  0  0  0  0  0
   14.3780    5.3140   -0.9010 H   0  0  0  0  0  0  0  0  0  0  0  0
   15.6080    3.8200    0.6810 H   0  0  0  0  0  0  0  0  0  0  0  0
   16.1080    1.4750    0.0330 H   0  0  0  0  0  0  0  0  0  0  0  0
   14.6500   -0.5810   -0.5000 H   0  0  0  0  0  0  0  0  0  0  0  0
   13.6560   -2.1720    3.3360 H   0  0  0  0  0  0  0  0  0  0  0  0
  1  2  1  0  0  0  0
  1 27  1  0  0  0  0
  1 28  1  0  0  0  0
  1 29  1  0  0  0  0
  2  3  1  0  0  0  0
  2 25  1  0  0  0  0
  3  4  1  0  0  0  0
  3  5  2  0  0  0  0
  4 30  1  0  0  0  0
  4 46  1  0  0  0  0
  5  6  1  0  0  0  0
  5 31  1  0  0  0  0
  6  7  1  0  0  0  0
  6 13  1  0  0  0  0
  6 25  1  0  0  0  0
  7  8  2  0  0  0  0
  7 12  1  0  0  0  0
  8  9  1  0  0  0  0
  8 32  1  0  0  0  0
  9 10  2  0  0  0  0
  9 33  1  0  0  0  0
 10 11  1  0  0  0  0
 10 34  1  0  0  0  0
 11 12  2  0  0  0  0
 11 35  1  0  0  0  0
 12 36  1  0  0  0  0
 13 14  2  0  0  0  0
 13 24  1  0  0  0  0
 14 15  1  0  0  0  0
 14 37  1  0  0  0  0
 15 16  2  0  0  0  0
 15 38  1  0  0  0  0
 16 17  1  0  0  0  0
 16 39  1  0  0  0  0
 17 18  1  0  0  0  0
 17 24  2  0  0  0  0
 18 19  2  0  0  0  0
 18 23  1  0  0  0  0
 19 20  1  0  0  0  0
 19 40  1  0  0  0  0
 20 21  2  0  0  0  0
 20 41  1  0  0  0  0
 21 22  1  0  0  0  0
 21 42  1  0  0  0  0
 22 23  2  0  0  0  0
 22 43  1  0  0  0  0
 23 44  1  0  0  0  0
 24 45  1  0  0  0  0
 25 26  2  0  0  0  0
M  CHG  1   5   1
M  END
$$$$
