p38a_2n
 OpenBabel02232411163D
Structure written by MMmdl.
 53 56  0  0  0  0  0  0  0  0999 V2000
   38.3540   36.6380   16.9640 C   0  0  0  0  0  0  0  0  0  0  0  0
   34.5700   34.8030   20.8310 C   0  0  0  0  0  0  0  0  0  0  0  0
   37.5640   36.1010   17.9760 C   0  0  0  0  0  0  0  0  0  0  0  0
   33.6160   38.7170   23.5150 C   0  0  0  0  0  0  0  0  0  0  0  0
   34.5270   37.6690   21.1370 C   0  0  0  0  0  0  0  0  0  0  0  0
   35.0230   37.0970   19.9160 C   0  0  0  0  0  0  0  0  0  0  0  0
   37.7250   36.8410   15.7280 C   0  0  0  0  0  0  0  0  0  0  0  0
   36.3880   36.5240   15.4790 C   0  0  0  0  0  0  0  0  0  0  0  0
   35.6240   35.9550   16.5030 C   0  0  0  0  0  0  0  0  0  0  0  0
   34.0570   36.8220   22.1860 C   0  0  0  0  0  0  0  0  0  0  0  0
   34.5040   39.0710   21.3740 C   0  0  0  0  0  0  0  0  0  0  0  0
   35.0570   35.7500   19.7970 C   0  0  0  0  0  0  0  0  0  0  0  0
   36.2230   35.7290   17.7440 C   0  0  0  0  0  0  0  0  0  0  0  0
   38.0640   35.9430   19.1950 F   0  0  0  0  0  0  0  0  0  0  0  0
   35.5150   35.0060   18.7120 O   0  0  0  0  0  0  0  0  0  0  0  0
   34.0760   39.6080   22.5240 N   0  0  0  0  0  0  0  0  0  0  0  0
   34.5760   33.5950   20.7210 O   0  0  0  0  0  0  0  0  0  0  0  0
   34.0750   35.4220   22.0300 N   0  0  0  0  0  0  0  0  0  0  0  0
   33.6080   37.3420   23.3730 N   0  0  0  0  0  0  0  0  0  0  0  0
   33.0960   39.2730   24.6630 N   0  0  0  0  0  0  0  0  0  0  0  0
   39.3940   36.9250   17.1390 H   0  0  0  0  0  0  0  0  0  0  0  0
   35.3630   37.7730   19.1300 H   0  0  0  0  0  0  0  0  0  0  0  0
   35.9270   36.7290   14.5130 H   0  0  0  0  0  0  0  0  0  0  0  0
   34.5720   35.7070   16.3300 H   0  0  0  0  0  0  0  0  0  0  0  0
   34.8540   39.7710   20.5950 H   0  0  0  0  0  0  0  0  0  0  0  0
   33.2420   40.2880   24.8420 H   0  0  0  0  0  0  0  0  0  0  0  0
   38.4250   37.4070   14.7500 F   0  0  0  0  0  0  0  0  0  0  0  0
   31.2810   38.3940   27.9040 C   0  0  0  0  0  0  0  0  0  0  0  0
   31.5970   39.1550   26.6110 C   0  0  0  0  0  0  0  0  0  0  0  0
   32.7430   38.4470   25.8580 C   0  0  0  0  0  0  0  0  0  0  0  0
   33.9670   38.2750   26.7850 C   0  0  0  0  0  0  0  0  0  0  0  0
   33.5440   37.5690   28.0790 C   0  0  0  0  0  0  0  0  0  0  0  0
   32.4550   38.2580   28.7370 O   0  0  0  0  0  0  0  0  0  0  0  0
   30.8720   37.3810   27.6800 H   0  0  0  0  0  0  0  0  0  0  0  0
   30.5910   38.9710   28.5600 H   0  0  0  0  0  0  0  0  0  0  0  0
   31.8970   40.2020   26.8500 H   0  0  0  0  0  0  0  0  0  0  0  0
   30.6880   39.1870   25.9640 H   0  0  0  0  0  0  0  0  0  0  0  0
   32.3900   37.4350   25.5090 H   0  0  0  0  0  0  0  0  0  0  0  0
   34.7460   37.6590   26.2740 H   0  0  0  0  0  0  0  0  0  0  0  0
   34.4090   39.2730   27.0200 H   0  0  0  0  0  0  0  0  0  0  0  0
   33.2340   36.5170   27.8740 H   0  0  0  0  0  0  0  0  0  0  0  0
   34.3520   37.6140   28.8460 H   0  0  0  0  0  0  0  0  0  0  0  0
   33.5300   34.5270   23.1070 C   0  0  0  0  0  0  0  0  0  0  0  0
   34.1560   33.5930   23.1250 H   0  0  0  0  0  0  0  0  0  0  0  0
   33.6350   35.0440   24.1040 H   0  0  0  0  0  0  0  0  0  0  0  0
   32.0500   34.1750   22.8890 C   0  0  0  0  0  0  0  0  0  0  0  0
   31.7250   33.5410   23.7580 H   0  0  0  0  0  0  0  0  0  0  0  0
   31.4320   35.1050   22.9150 H   0  0  0  0  0  0  0  0  0  0  0  0
   31.7960   33.4100   21.5880 C   0  0  0  0  0  0  0  0  0  0  0  0
   31.6980   34.0950   20.7210 H   0  0  0  0  0  0  0  0  0  0  0  0
   32.5710   32.6320   21.4110 H   0  0  0  0  0  0  0  0  0  0  0  0
   30.5410   32.7010   21.7330 O   0  0  0  0  0  0  0  0  0  0  0  0
   30.1250   32.6710   20.7880 H   0  0  0  0  0  0  0  0  0  0  0  0
  1  3  2  0  0  0  0
  1  7  1  0  0  0  0
  1 21  1  0  0  0  0
  2 12  1  0  0  0  0
  2 17  2  0  0  0  0
  2 18  1  0  0  0  0
  3 13  1  0  0  0  0
  3 14  1  0  0  0  0
  4 16  2  0  0  0  0
  4 19  1  0  0  0  0
  4 20  1  0  0  0  0
  5  6  1  0  0  0  0
  5 10  1  0  0  0  0
  5 11  2  0  0  0  0
  6 12  2  0  0  0  0
  6 22  1  0  0  0  0
  7  8  2  0  0  0  0
  7 27  1  0  0  0  0
  8  9  1  0  0  0  0
  8 23  1  0  0  0  0
  9 13  2  0  0  0  0
  9 24  1  0  0  0  0
 10 18  1  0  0  0  0
 10 19  2  0  0  0  0
 11 16  1  0  0  0  0
 11 25  1  0  0  0  0
 12 15  1  0  0  0  0
 13 15  1  0  0  0  0
 18 43  1  0  0  0  0
 20 26  1  0  0  0  0
 20 30  1  0  0  0  0
 28 29  1  0  0  0  0
 28 33  1  0  0  0  0
 28 34  1  0  0  0  0
 28 35  1  0  0  0  0
 29 30  1  0  0  0  0
 29 36  1  0  0  0  0
 29 37  1  0  0  0  0
 30 31  1  0  0  0  0
 30 38  1  0  0  0  0
 31 32  1  0  0  0  0
 31 39  1  0  0  0  0
 31 40  1  0  0  0  0
 32 33  1  0  0  0  0
 32 41  1  0  0  0  0
 32 42  1  0  0  0  0
 43 44  1  0  0  0  0
 43 45  1  0  0  0  0
 43 46  1  0  0  0  0
 46 47  1  0  0  0  0
 46 48  1  0  0  0  0
 46 49  1  0  0  0  0
 49 50  1  0  0  0  0
 49 51  1  0  0  0  0
 49 52  1  0  0  0  0
 52 53  1  0  0  0  0
M  END
$$$$
