p38a_2aa
 OpenBabel02232411163D
Structure written by MMmdl.
 43 45  0  0  0  0  0  0  0  0999 V2000
   38.2600   36.5210   17.1810 C   0  0  0  0  0  0  0  0  0  0  0  0
   34.5100   35.1450   21.2310 C   0  0  0  0  0  0  0  0  0  0  0  0
   37.4580   36.0700   18.2260 C   0  0  0  0  0  0  0  0  0  0  0  0
   33.9890   39.2830   23.6740 C   0  0  0  0  0  0  0  0  0  0  0  0
   33.3060   39.2940   26.0860 C   0  0  0  0  0  0  0  0  0  0  0  0
   34.5600   38.0280   21.2940 C   0  0  0  0  0  0  0  0  0  0  0  0
   34.9520   37.3400   20.0940 C   0  0  0  0  0  0  0  0  0  0  0  0
   37.6310   36.6820   15.9390 C   0  0  0  0  0  0  0  0  0  0  0  0
   36.2850   36.3860   15.7120 C   0  0  0  0  0  0  0  0  0  0  0  0
   35.5040   35.9200   16.7750 C   0  0  0  0  0  0  0  0  0  0  0  0
   34.2360   37.2830   22.4670 C   0  0  0  0  0  0  0  0  0  0  0  0
   34.5030   39.4430   21.3930 C   0  0  0  0  0  0  0  0  0  0  0  0
   34.9620   35.9870   20.0920 C   0  0  0  0  0  0  0  0  0  0  0  0
   36.0960   35.7560   18.0300 C   0  0  0  0  0  0  0  0  0  0  0  0
   33.8530   35.1290   23.6680 C   0  0  0  0  0  0  0  0  0  0  0  0
   37.9710   35.9330   19.4420 F   0  0  0  0  0  0  0  0  0  0  0  0
   35.3550   35.1460   19.0520 O   0  0  0  0  0  0  0  0  0  0  0  0
   34.2210   40.0810   22.5410 N   0  0  0  0  0  0  0  0  0  0  0  0
   34.3880   33.9400   21.2130 O   0  0  0  0  0  0  0  0  0  0  0  0
   34.2040   35.8800   22.4300 N   0  0  0  0  0  0  0  0  0  0  0  0
   33.9490   37.9080   23.6560 N   0  0  0  0  0  0  0  0  0  0  0  0
   33.9140   39.9450   24.8940 N   0  0  0  0  0  0  0  0  0  0  0  0
   39.3140   36.7750   17.3300 H   0  0  0  0  0  0  0  0  0  0  0  0
   34.1550   39.6850   27.3240 C   0  0  0  0  0  0  0  0  0  0  0  0
   35.2460   37.9370   19.2280 H   0  0  0  0  0  0  0  0  0  0  0  0
   35.8310   36.5280   14.7290 H   0  0  0  0  0  0  0  0  0  0  0  0
   34.4420   35.7050   16.6180 H   0  0  0  0  0  0  0  0  0  0  0  0
   34.6850   40.0670   20.5010 H   0  0  0  0  0  0  0  0  0  0  0  0
   34.5380   35.4260   24.5080 H   0  0  0  0  0  0  0  0  0  0  0  0
   32.7970   35.3620   23.9740 H   0  0  0  0  0  0  0  0  0  0  0  0
   33.9480   34.0250   23.4940 H   0  0  0  0  0  0  0  0  0  0  0  0
   33.7480   40.9720   24.8790 H   0  0  0  0  0  0  0  0  0  0  0  0
   38.3450   37.1830   14.9330 F   0  0  0  0  0  0  0  0  0  0  0  0
   31.8440   39.7580   26.2900 C   0  0  0  0  0  0  0  0  0  0  0  0
   31.1740   39.6560   25.0160 O   0  0  0  0  0  0  0  0  0  0  0  0
   30.3710   40.2550   25.0590 H   0  0  0  0  0  0  0  0  0  0  0  0
   31.3240   39.0860   27.0120 H   0  0  0  0  0  0  0  0  0  0  0  0
   31.8220   40.8220   26.6180 H   0  0  0  0  0  0  0  0  0  0  0  0
   33.9240   41.0320   27.7700 O   0  0  0  0  0  0  0  0  0  0  0  0
   33.8590   39.0690   28.2080 H   0  0  0  0  0  0  0  0  0  0  0  0
   35.2440   39.5790   27.1020 H   0  0  0  0  0  0  0  0  0  0  0  0
   33.8480   41.6420   26.9750 H   0  0  0  0  0  0  0  0  0  0  0  0
   33.3380   38.1700   25.9870 H   0  0  0  0  0  0  0  0  0  0  0  0
  1  3  2  0  0  0  0
  1  8  1  0  0  0  0
  1 23  1  0  0  0  0
  2 13  1  0  0  0  0
  2 19  2  0  0  0  0
  2 20  1  0  0  0  0
  3 14  1  0  0  0  0
  3 16  1  0  0  0  0
  4 18  2  0  0  0  0
  4 21  1  0  0  0  0
  4 22  1  0  0  0  0
  5 22  1  0  0  0  0
  5 24  1  0  0  0  0
  5 34  1  0  0  0  0
  5 43  1  0  0  0  0
  6  7  1  0  0  0  0
  6 11  1  0  0  0  0
  6 12  2  0  0  0  0
  7 13  2  0  0  0  0
  7 25  1  0  0  0  0
  8  9  2  0  0  0  0
  8 33  1  0  0  0  0
  9 10  1  0  0  0  0
  9 26  1  0  0  0  0
 10 14  2  0  0  0  0
 10 27  1  0  0  0  0
 11 20  1  0  0  0  0
 11 21  2  0  0  0  0
 12 18  1  0  0  0  0
 12 28  1  0  0  0  0
 13 17  1  0  0  0  0
 14 17  1  0  0  0  0
 15 20  1  0  0  0  0
 15 29  1  0  0  0  0
 15 30  1  0  0  0  0
 15 31  1  0  0  0  0
 22 32  1  0  0  0  0
 24 39  1  0  0  0  0
 24 40  1  0  0  0  0
 24 41  1  0  0  0  0
 34 35  1  0  0  0  0
 34 37  1  0  0  0  0
 34 38  1  0  0  0  0
 35 36  1  0  0  0  0
 39 42  1  0  0  0  0
M  END
$$$$
