p38a_2u
 OpenBabel02232411163D
Structure written by MMmdl.
 64 68  0  0  0  0  0  0  0  0999 V2000
   38.3220   36.5850   17.0970 C   0  0  0  0  0  0  0  0  0  0  0  0
   34.5860   35.0530   21.1480 C   0  0  0  0  0  0  0  0  0  0  0  0
   37.5430   36.1170   18.1520 C   0  0  0  0  0  0  0  0  0  0  0  0
   33.9830   39.0770   23.7690 C   0  0  0  0  0  0  0  0  0  0  0  0
   34.6720   37.9100   21.3730 C   0  0  0  0  0  0  0  0  0  0  0  0
   35.0850   37.2920   20.1420 C   0  0  0  0  0  0  0  0  0  0  0  0
   37.6700   36.7510   15.8680 C   0  0  0  0  0  0  0  0  0  0  0  0
   36.3210   36.4510   15.6630 C   0  0  0  0  0  0  0  0  0  0  0  0
   35.5640   35.9670   16.7350 C   0  0  0  0  0  0  0  0  0  0  0  0
   34.3040   37.1130   22.5010 C   0  0  0  0  0  0  0  0  0  0  0  0
   34.6260   39.3210   21.5310 C   0  0  0  0  0  0  0  0  0  0  0  0
   35.0780   35.9430   20.0650 C   0  0  0  0  0  0  0  0  0  0  0  0
   36.1820   35.7920   17.9760 C   0  0  0  0  0  0  0  0  0  0  0  0
   38.0780   35.9770   19.3590 F   0  0  0  0  0  0  0  0  0  0  0  0
   35.4700   35.1440   18.9940 O   0  0  0  0  0  0  0  0  0  0  0  0
   34.2960   39.9200   22.6850 N   0  0  0  0  0  0  0  0  0  0  0  0
   34.4550   33.8520   21.0440 O   0  0  0  0  0  0  0  0  0  0  0  0
   34.2520   35.7090   22.3900 N   0  0  0  0  0  0  0  0  0  0  0  0
   33.9960   37.6990   23.7020 N   0  0  0  0  0  0  0  0  0  0  0  0
   33.5700   39.6870   24.9360 N   0  0  0  0  0  0  0  0  0  0  0  0
   39.3750   36.8480   17.2330 H   0  0  0  0  0  0  0  0  0  0  0  0
   35.3990   37.9380   19.3200 H   0  0  0  0  0  0  0  0  0  0  0  0
   35.8460   36.6040   14.6910 H   0  0  0  0  0  0  0  0  0  0  0  0
   34.5000   35.7470   16.5980 H   0  0  0  0  0  0  0  0  0  0  0  0
   34.8670   39.9780   20.6780 H   0  0  0  0  0  0  0  0  0  0  0  0
   33.6760   40.7190   25.0250 H   0  0  0  0  0  0  0  0  0  0  0  0
   38.3620   37.2580   14.8520 F   0  0  0  0  0  0  0  0  0  0  0  0
   32.3990   39.0480   28.5090 C   0  0  0  0  0  0  0  0  0  0  0  0
   32.4010   39.6380   27.0940 C   0  0  0  0  0  0  0  0  0  0  0  0
   33.4900   38.9560   26.2360 C   0  0  0  0  0  0  0  0  0  0  0  0
   34.8580   39.0000   26.9540 C   0  0  0  0  0  0  0  0  0  0  0  0
   34.7270   38.4500   28.3790 C   0  0  0  0  0  0  0  0  0  0  0  0
   33.7030   39.1470   29.1260 O   0  0  0  0  0  0  0  0  0  0  0  0
   32.0830   37.9790   28.4950 H   0  0  0  0  0  0  0  0  0  0  0  0
   31.7620   39.6500   29.1970 H   0  0  0  0  0  0  0  0  0  0  0  0
   32.5940   40.7350   27.1500 H   0  0  0  0  0  0  0  0  0  0  0  0
   31.4030   39.4770   26.6210 H   0  0  0  0  0  0  0  0  0  0  0  0
   33.1940   37.8870   26.0460 H   0  0  0  0  0  0  0  0  0  0  0  0
   35.5950   38.3820   26.3890 H   0  0  0  0  0  0  0  0  0  0  0  0
   35.2280   40.0540   26.9900 H   0  0  0  0  0  0  0  0  0  0  0  0
   34.4820   37.3630   28.3630 H   0  0  0  0  0  0  0  0  0  0  0  0
   35.6420   38.6570   28.9790 H   0  0  0  0  0  0  0  0  0  0  0  0
   31.8090   34.0620   24.8900 C   0  0  0  0  0  0  0  0  0  0  0  0
   32.3080   35.1390   23.9040 C   0  0  0  0  0  0  0  0  0  0  0  0
   33.7590   34.8210   23.5100 C   0  0  0  0  0  0  0  0  0  0  0  0
   34.6540   34.8640   24.7600 C   0  0  0  0  0  0  0  0  0  0  0  0
   34.1680   33.7860   25.7580 C   0  0  0  0  0  0  0  0  0  0  0  0
   31.7270   33.0780   24.3610 H   0  0  0  0  0  0  0  0  0  0  0  0
   30.7950   34.3840   25.2520 H   0  0  0  0  0  0  0  0  0  0  0  0
   32.2490   36.1350   24.4120 H   0  0  0  0  0  0  0  0  0  0  0  0
   31.6380   35.1570   23.0160 H   0  0  0  0  0  0  0  0  0  0  0  0
   33.7900   33.7670   23.0970 H   0  0  0  0  0  0  0  0  0  0  0  0
   35.7170   34.6710   24.5010 H   0  0  0  0  0  0  0  0  0  0  0  0
   34.5820   35.8650   25.2570 H   0  0  0  0  0  0  0  0  0  0  0  0
   34.3630   32.7690   25.3300 H   0  0  0  0  0  0  0  0  0  0  0  0
   34.7490   33.9200   26.7100 H   0  0  0  0  0  0  0  0  0  0  0  0
   32.7190   33.9640   26.0700 N   0  0  0  0  0  0  0  0  0  0  0  0
   32.0730   33.3510   27.5330 S   0  0  0  0  0  0  0  0  0  0  0  0
   33.0810   32.5020   28.1990 O   0  0  0  0  0  0  0  0  0  0  0  0
   30.8400   32.5880   27.2430 O   0  0  0  0  0  0  0  0  0  0  0  0
   31.7430   34.7770   28.4500 C   0  0  0  0  0  0  0  0  0  0  0  0
   32.6330   35.4580   28.4980 H   0  0  0  0  0  0  0  0  0  0  0  0
   30.9090   35.3880   28.0050 H   0  0  0  0  0  0  0  0  0  0  0  0
   31.4450   34.5560   29.5070 H   0  0  0  0  0  0  0  0  0  0  0  0
  1  3  2  0  0  0  0
  1  7  1  0  0  0  0
  1 21  1  0  0  0  0
  2 12  1  0  0  0  0
  2 17  2  0  0  0  0
  2 18  1  0  0  0  0
  3 13  1  0  0  0  0
  3 14  1  0  0  0  0
  4 16  2  0  0  0  0
  4 19  1  0  0  0  0
  4 20  1  0  0  0  0
  5  6  1  0  0  0  0
  5 10  1  0  0  0  0
  5 11  2  0  0  0  0
  6 12  2  0  0  0  0
  6 22  1  0  0  0  0
  7  8  2  0  0  0  0
  7 27  1  0  0  0  0
  8  9  1  0  0  0  0
  8 23  1  0  0  0  0
  9 13  2  0  0  0  0
  9 24  1  0  0  0  0
 10 18  1  0  0  0  0
 10 19  2  0  0  0  0
 11 16  1  0  0  0  0
 11 25  1  0  0  0  0
 12 15  1  0  0  0  0
 13 15  1  0  0  0  0
 18 45  1  0  0  0  0
 20 26  1  0  0  0  0
 20 30  1  0  0  0  0
 28 29  1  0  0  0  0
 28 33  1  0  0  0  0
 28 34  1  0  0  0  0
 28 35  1  0  0  0  0
 29 30  1  0  0  0  0
 29 36  1  0  0  0  0
 29 37  1  0  0  0  0
 30 31  1  0  0  0  0
 30 38  1  0  0  0  0
 31 32  1  0  0  0  0
 31 39  1  0  0  0  0
 31 40  1  0  0  0  0
 32 33  1  0  0  0  0
 32 41  1  0  0  0  0
 32 42  1  0  0  0  0
 43 44  1  0  0  0  0
 43 48  1  0  0  0  0
 43 49  1  0  0  0  0
 43 57  1  0  0  0  0
 44 45  1  0  0  0  0
 44 50  1  0  0  0  0
 44 51  1  0  0  0  0
 45 46  1  0  0  0  0
 45 52  1  0  0  0  0
 46 47  1  0  0  0  0
 46 53  1  0  0  0  0
 46 54  1  0  0  0  0
 47 55  1  0  0  0  0
 47 56  1  0  0  0  0
 47 57  1  0  0  0  0
 57 58  1  0  0  0  0
 58 59  2  0  0  0  0
 58 60  2  0  0  0  0
 58 61  1  0  0  0  0
 61 62  1  0  0  0  0
 61 63  1  0  0  0  0
 61 64  1  0  0  0  0
M  END
$$$$
