66
 OpenBabel02232411163D
Structure written by MMmdl.
 43 46  0  0  0  0  0  0  0  0999 V2000
    3.2720  -47.8790    7.0750 O   0  0  0  0  0  0  0  0  0  0  0  0
    2.9660  -48.9170    6.4750 C   0  0  0  0  0  0  0  0  0  0  0  0
    3.7370  -49.7550    5.9720 O   0  5  0  0  0  0  0  0  0  0  0  0
    1.4810  -49.3030    6.3820 C   0  0  0  0  0  0  0  0  0  0  0  0
    1.1390  -50.9350    6.9170 S   0  0  0  0  0  0  0  0  0  0  0  0
   -0.5700  -50.7760    6.6270 C   0  0  0  0  0  0  0  0  0  0  0  0
   -1.6040  -51.6830    6.8470 C   0  0  0  0  0  0  0  0  0  0  0  0
   -2.9130  -51.3680    6.4970 C   0  0  0  0  0  0  0  0  0  0  0  0
   -3.1850  -50.1090    5.9340 C   0  0  0  0  0  0  0  0  0  0  0  0
   -2.1720  -49.1750    5.7310 C   0  0  0  0  0  0  0  0  0  0  0  0
   -0.8470  -49.4920    6.0790 C   0  0  0  0  0  0  0  0  0  0  0  0
    0.3580  -48.6590    5.9740 C   0  0  0  0  0  0  0  0  0  0  0  0
    0.2770  -47.2490    5.4790 C   0  0  0  0  0  0  0  0  0  0  0  0
    0.2630  -46.2180    6.6200 C   0  0  0  0  0  0  0  0  0  0  0  0
   -0.8970  -46.3730    7.5970 C   0  0  0  0  0  0  0  0  0  0  0  0
   -2.0750  -45.8130    6.9040 O   0  0  0  0  0  0  0  0  0  0  0  0
   -3.2620  -45.8230    7.5770 C   0  0  0  0  0  0  0  0  0  0  0  0
   -5.7950  -45.6030    8.7790 C   0  0  0  0  0  0  0  0  0  0  0  0
   -4.8060  -46.3610    9.3560 C   0  0  0  0  0  0  0  0  0  0  0  0
   -3.5200  -46.4760    8.7680 C   0  0  0  0  0  0  0  0  0  0  0  0
   -1.3120  -53.2240    7.5860 Cl  0  0  0  0  0  0  0  0  0  0  0  0
   -3.7250  -52.0780    6.6560 H   0  0  0  0  0  0  0  0  0  0  0  0
   -4.2150  -49.8680    5.6600 H   0  0  0  0  0  0  0  0  0  0  0  0
   -2.4320  -48.2020    5.3090 H   0  0  0  0  0  0  0  0  0  0  0  0
   -0.6540  -47.1190    4.8700 H   0  0  0  0  0  0  0  0  0  0  0  0
    1.1550  -47.0230    4.8230 H   0  0  0  0  0  0  0  0  0  0  0  0
    0.2130  -45.1940    6.1820 H   0  0  0  0  0  0  0  0  0  0  0  0
    1.2110  -46.3200    7.2100 H   0  0  0  0  0  0  0  0  0  0  0  0
   -0.7560  -45.7420    8.5010 H   0  0  0  0  0  0  0  0  0  0  0  0
   -1.1300  -47.4350    7.8210 H   0  0  0  0  0  0  0  0  0  0  0  0
   -2.7880  -47.0920    9.2780 H   0  0  0  0  0  0  0  0  0  0  0  0
   -5.5620  -44.9520    7.5280 C   0  0  0  0  0  0  0  0  0  0  0  0
   -4.2900  -45.0600    6.9060 C   0  0  0  0  0  0  0  0  0  0  0  0
   -4.0750  -44.4580    5.6330 C   0  0  0  0  0  0  0  0  0  0  0  0
   -5.0820  -43.7590    5.0110 C   0  0  0  0  0  0  0  0  0  0  0  0
   -6.3570  -43.6520    5.6280 C   0  0  0  0  0  0  0  0  0  0  0  0
   -6.5950  -44.2300    6.8520 C   0  0  0  0  0  0  0  0  0  0  0  0
   -3.1070  -44.5890    5.1490 H   0  0  0  0  0  0  0  0  0  0  0  0
   -4.9190  -43.2910    4.0430 H   0  0  0  0  0  0  0  0  0  0  0  0
   -7.1450  -43.1110    5.1090 H   0  0  0  0  0  0  0  0  0  0  0  0
   -7.5770  -44.1590    7.3180 H   0  0  0  0  0  0  0  0  0  0  0  0
   -5.0030  -46.8990   10.2870 H   0  0  0  0  0  0  0  0  0  0  0  0
   -6.7740  -45.5090    9.2480 H   0  0  0  0  0  0  0  0  0  0  0  0
  1  2  2  0  0  0  0
  2  3  1  0  0  0  0
  2  4  1  0  0  0  0
  4  5  1  0  0  0  0
  4 12  2  0  0  0  0
  5  6  1  0  0  0  0
  6  7  2  0  0  0  0
  6 11  1  0  0  0  0
  7  8  1  0  0  0  0
  7 21  1  0  0  0  0
  8  9  2  0  0  0  0
  8 22  1  0  0  0  0
  9 10  1  0  0  0  0
  9 23  1  0  0  0  0
 10 11  2  0  0  0  0
 10 24  1  0  0  0  0
 11 12  1  0  0  0  0
 12 13  1  0  0  0  0
 13 25  1  0  0  0  0
 13 26  1  0  0  0  0
 13 14  1  0  0  0  0
 14 15  1  0  0  0  0
 14 27  1  0  0  0  0
 14 28  1  0  0  0  0
 15 16  1  0  0  0  0
 15 29  1  0  0  0  0
 15 30  1  0  0  0  0
 16 17  1  0  0  0  0
 17 20  2  0  0  0  0
 17 33  1  0  0  0  0
 18 19  2  0  0  0  0
 18 32  1  0  0  0  0
 18 43  1  0  0  0  0
 19 20  1  0  0  0  0
 19 42  1  0  0  0  0
 20 31  1  0  0  0  0
 32 33  2  0  0  0  0
 32 37  1  0  0  0  0
 33 34  1  0  0  0  0
 34 35  2  0  0  0  0
 34 38  1  0  0  0  0
 35 36  1  0  0  0  0
 35 39  1  0  0  0  0
 36 37  2  0  0  0  0
 36 40  1  0  0  0  0
 37 41  1  0  0  0  0
M  CHG  1   3  -1
M  END
$$$$
