CAT-17e
 OpenBabel02232411143D
Structure written by MMmdl.
 46 49  0  0  1  0  0  0  0  0999 V2000
   15.0130    4.9220    1.7850 C   0  0  0  0  0  0  0  0  0  0  0  0
   15.7520    3.9000    1.0650 O   0  0  0  0  0  0  0  0  0  0  0  0
   15.4430    3.6870   -0.2540 C   0  0  0  0  0  0  0  0  0  0  0  0
   14.9160    4.6290   -1.1700 C   0  0  0  0  0  0  0  0  0  0  0  0
   14.7380    4.3160   -2.4740 N   0  0  0  0  0  0  0  0  0  0  0  0
   15.0240    3.0620   -2.9030 C   0  0  0  0  0  0  0  0  0  0  0  0
   15.4940    2.0530   -2.0330 C   0  0  0  0  0  0  0  0  0  0  0  0
   15.6740    0.6470   -2.4490 C   0  0  0  0  0  0  0  0  0  0  0  0
   16.3490    0.2750   -3.6230 C   0  0  0  0  0  0  0  0  0  0  0  0
   16.5670   -1.0770   -3.9010 C   0  0  0  0  0  0  0  0  0  0  0  0
   16.1080   -2.0760   -3.0330 C   0  0  0  0  0  0  0  0  0  0  0  0
   15.3890   -1.7130   -1.8890 C   0  0  0  0  0  0  0  0  0  0  0  0
   14.8170   -2.7310   -0.9260 C   0  0  1  0  0  0  0  0  0  0  0  0
   15.0500   -4.1940   -1.2630 C   0  0  0  0  0  0  0  0  0  0  0  0
   16.2580   -4.9350   -0.7170 C   0  0  0  0  0  0  0  0  0  0  0  0
   14.8780   -5.2710   -0.1960 C   0  0  0  0  0  0  0  0  0  0  0  0
   15.2660   -2.3790    0.4750 N   0  3  0  0  0  0  0  0  0  0  0  0
   14.1760   -2.3910    1.3520 C   0  0  0  0  0  0  0  0  0  0  0  0
   14.3130   -2.4390    2.7080 N   0  0  0  0  0  0  0  0  0  0  0  0
   12.9860   -2.4240    0.6280 N   0  0  0  0  0  0  0  0  0  0  0  0
   11.6520   -2.2790    1.2450 C   0  0  0  0  0  0  0  0  0  0  0  0
   13.2640   -2.5530   -0.8180 C   0  0  0  0  0  0  0  0  0  0  0  0
   12.4000   -2.5210   -1.6340 O   0  0  0  0  0  0  0  0  0  0  0  0
   15.1680   -0.3560   -1.6090 C   0  0  0  0  0  0  0  0  0  0  0  0
   15.7350    2.3880   -0.6950 C   0  0  0  0  0  0  0  0  0  0  0  0
   15.1750    4.5830    2.8390 H   0  0  0  0  0  0  0  0  0  0  0  0
   15.4750    5.9090    1.5840 H   0  0  0  0  0  0  0  0  0  0  0  0
   13.9450    4.8880    1.5020 H   0  0  0  0  0  0  0  0  0  0  0  0
   14.6240    5.6410   -0.8590 H   0  0  0  0  0  0  0  0  0  0  0  0
   14.8540    2.8500   -3.9710 H   0  0  0  0  0  0  0  0  0  0  0  0
   16.7120    1.0340   -4.3220 H   0  0  0  0  0  0  0  0  0  0  0  0
   17.1160   -1.3590   -4.8050 H   0  0  0  0  0  0  0  0  0  0  0  0
   16.3160   -3.1250   -3.2490 H   0  0  0  0  0  0  0  0  0  0  0  0
   14.7130   -4.4400   -2.2860 H   0  0  0  0  0  0  0  0  0  0  0  0
   16.7900   -5.6270   -1.3670 H   0  0  0  0  0  0  0  0  0  0  0  0
   16.9620   -4.4060   -0.0710 H   0  0  0  0  0  0  0  0  0  0  0  0
   14.6160   -4.9810    0.8280 H   0  0  0  0  0  0  0  0  0  0  0  0
   14.4000   -6.2160   -0.4860 H   0  0  0  0  0  0  0  0  0  0  0  0
   16.1990   -2.7020    0.8480 H   0  0  0  0  0  0  0  0  0  0  0  0
   13.5890   -2.0320    3.3500 H   0  0  0  0  0  0  0  0  0  0  0  0
   10.9030   -2.8660    0.6480 H   0  0  0  0  0  0  0  0  0  0  0  0
   11.6600   -2.6780    2.2950 H   0  0  0  0  0  0  0  0  0  0  0  0
   11.3660   -1.1950    1.2580 H   0  0  0  0  0  0  0  0  0  0  0  0
   14.6030   -0.0850   -0.7190 H   0  0  0  0  0  0  0  0  0  0  0  0
   16.1130    1.6480    0.0120 H   0  0  0  0  0  0  0  0  0  0  0  0
   15.2880   -2.3700    3.1160 H   0  0  0  0  0  0  0  0  0  0  0  0
  1  2  1  0  0  0  0
  1 26  1  0  0  0  0
  1 27  1  0  0  0  0
  1 28  1  0  0  0  0
  2  3  1  0  0  0  0
  3  4  2  0  0  0  0
  3 25  1  0  0  0  0
  4  5  1  0  0  0  0
  4 29  1  0  0  0  0
  5  6  2  0  0  0  0
  6  7  1  0  0  0  0
  6 30  1  0  0  0  0
  7  8  1  0  0  0  0
  7 25  2  0  0  0  0
  8  9  2  0  0  0  0
  8 24  1  0  0  0  0
  9 10  1  0  0  0  0
  9 31  1  0  0  0  0
 10 11  2  0  0  0  0
 10 32  1  0  0  0  0
 11 12  1  0  0  0  0
 11 33  1  0  0  0  0
 12 24  2  0  0  0  0
 13 12  1  6  0  0  0
 13 14  1  0  0  0  0
 13 17  1  0  0  0  0
 13 22  1  0  0  0  0
 14 15  1  0  0  0  0
 14 16  1  0  0  0  0
 14 34  1  0  0  0  0
 15 16  1  0  0  0  0
 15 35  1  0  0  0  0
 15 36  1  0  0  0  0
 16 37  1  0  0  0  0
 16 38  1  0  0  0  0
 17 18  2  0  0  0  0
 17 39  1  0  0  0  0
 18 19  1  0  0  0  0
 18 20  1  0  0  0  0
 19 40  1  0  0  0  0
 19 46  1  0  0  0  0
 20 21  1  0  0  0  0
 20 22  1  0  0  0  0
 21 41  1  0  0  0  0
 21 42  1  0  0  0  0
 21 43  1  0  0  0  0
 22 23  2  0  0  0  0
 24 44  1  0  0  0  0
 25 45  1  0  0  0  0
M  CHG  1  17   1
M  END
$$$$
