41
 OpenBabel02232411163D
Structure written by MMmdl.
 49 52  0  0  0  0  0  0  0  0999 V2000
    4.6920  -50.9310    5.8220 O   0  0  0  0  0  0  0  0  0  0  0  0
    3.9160  -50.1580    6.4110 C   0  0  0  0  0  0  0  0  0  0  0  0
    4.2120  -49.2270    7.1730 O   0  5  0  0  0  0  0  0  0  0  0  0
    2.4120  -50.4020    6.1690 C   0  0  0  0  0  0  0  0  0  0  0  0
    0.4210  -51.5200    6.3040 C   0  0  0  0  0  0  0  0  0  0  0  0
   -0.6230  -52.4140    6.5910 C   0  0  0  0  0  0  0  0  0  0  0  0
   -1.9110  -52.0220    6.2570 C   0  0  0  0  0  0  0  0  0  0  0  0
   -2.1620  -50.7760    5.6360 C   0  0  0  0  0  0  0  0  0  0  0  0
   -1.1320  -49.8980    5.3270 C   0  0  0  0  0  0  0  0  0  0  0  0
    0.1850  -50.2490    5.6640 C   0  0  0  0  0  0  0  0  0  0  0  0
    1.4590  -49.5700    5.5930 C   0  0  0  0  0  0  0  0  0  0  0  0
    1.6540  -48.1830    5.0920 C   0  0  0  0  0  0  0  0  0  0  0  0
    0.9610  -47.1320    5.9790 C   0  0  0  0  0  0  0  0  0  0  0  0
    0.9730  -47.5550    7.4420 C   0  0  0  0  0  0  0  0  0  0  0  0
    0.2230  -46.5940    8.2430 O   0  0  0  0  0  0  0  0  0  0  0  0
   -1.1220  -46.4920    7.9560 C   0  0  0  0  0  0  0  0  0  0  0  0
   -2.0540  -47.5050    8.2510 C   0  0  0  0  0  0  0  0  0  0  0  0
   -3.4140  -47.2350    8.1250 C   0  0  0  0  0  0  0  0  0  0  0  0
   -3.8000  -45.9680    7.6570 C   0  0  0  0  0  0  0  0  0  0  0  0
   -2.8770  -45.0060    7.2410 C   0  0  0  0  0  0  0  0  0  0  0  0
   -1.5220  -45.2630    7.4140 C   0  0  0  0  0  0  0  0  0  0  0  0
   -0.4380  -53.3760    7.0700 H   0  0  0  0  0  0  0  0  0  0  0  0
   -2.7560  -52.6750    6.4820 H   0  0  0  0  0  0  0  0  0  0  0  0
   -3.1940  -50.5070    5.4030 H   0  0  0  0  0  0  0  0  0  0  0  0
   -1.3550  -48.9480    4.8400 H   0  0  0  0  0  0  0  0  0  0  0  0
    1.1860  -48.0830    4.0900 H   0  0  0  0  0  0  0  0  0  0  0  0
    2.7390  -47.9420    5.0160 H   0  0  0  0  0  0  0  0  0  0  0  0
   -0.1030  -47.0190    5.6440 H   0  0  0  0  0  0  0  0  0  0  0  0
    1.4530  -46.1400    5.8530 H   0  0  0  0  0  0  0  0  0  0  0  0
    1.9750  -47.4710    7.9180 H   0  0  0  0  0  0  0  0  0  0  0  0
    0.5000  -48.5460    7.6010 H   0  0  0  0  0  0  0  0  0  0  0  0
   -1.7340  -48.4950    8.5780 H   0  0  0  0  0  0  0  0  0  0  0  0
   -0.7700  -44.5290    7.1400 H   0  0  0  0  0  0  0  0  0  0  0  0
    1.7950  -51.5930    6.5920 N   0  0  0  0  0  0  0  0  0  0  0  0
    2.2310  -52.4020    7.0210 H   0  0  0  0  0  0  0  0  0  0  0  0
   -3.1870  -44.0770    6.7750 H   0  0  0  0  0  0  0  0  0  0  0  0
   -4.1640  -47.9860    8.3800 H   0  0  0  0  0  0  0  0  0  0  0  0
   -5.1810  -45.7340    7.7380 O   0  0  0  0  0  0  0  0  0  0  0  0
   -6.9650  -42.6140    5.6550 C   0  0  0  0  0  0  0  0  0  0  0  0
   -5.9390  -43.3230    5.0270 C   0  0  0  0  0  0  0  0  0  0  0  0
   -5.3220  -44.3950    5.6720 C   0  0  0  0  0  0  0  0  0  0  0  0
   -5.7370  -44.7150    6.9710 C   0  0  0  0  0  0  0  0  0  0  0  0
   -6.7970  -44.0460    7.6080 C   0  0  0  0  0  0  0  0  0  0  0  0
   -7.4030  -42.9910    6.9300 C   0  0  0  0  0  0  0  0  0  0  0  0
   -7.4240  -41.7610    5.1670 H   0  0  0  0  0  0  0  0  0  0  0  0
   -5.5930  -43.0350    4.0350 H   0  0  0  0  0  0  0  0  0  0  0  0
   -4.5340  -44.9430    5.1540 H   0  0  0  0  0  0  0  0  0  0  0  0
   -7.1260  -44.3400    8.6030 H   0  0  0  0  0  0  0  0  0  0  0  0
   -8.2060  -42.4280    7.4040 H   0  0  0  0  0  0  0  0  0  0  0  0
  1  2  2  0  0  0  0
  2  3  1  0  0  0  0
  2  4  1  0  0  0  0
  4 11  2  0  0  0  0
  4 34  1  0  0  0  0
  5  6  2  0  0  0  0
  5 10  1  0  0  0  0
  5 34  1  0  0  0  0
  6  7  1  0  0  0  0
  6 22  1  0  0  0  0
  7  8  2  0  0  0  0
  7 23  1  0  0  0  0
  8  9  1  0  0  0  0
  8 24  1  0  0  0  0
  9 10  2  0  0  0  0
  9 25  1  0  0  0  0
 10 11  1  0  0  0  0
 11 12  1  0  0  0  0
 12 26  1  0  0  0  0
 12 27  1  0  0  0  0
 12 13  1  0  0  0  0
 13 14  1  0  0  0  0
 13 28  1  0  0  0  0
 13 29  1  0  0  0  0
 14 15  1  0  0  0  0
 14 30  1  0  0  0  0
 14 31  1  0  0  0  0
 15 16  1  0  0  0  0
 16 17  2  0  0  0  0
 16 21  1  0  0  0  0
 17 18  1  0  0  0  0
 17 32  1  0  0  0  0
 18 19  2  0  0  0  0
 18 37  1  0  0  0  0
 19 20  1  0  0  0  0
 19 38  1  0  0  0  0
 20 21  2  0  0  0  0
 20 36  1  0  0  0  0
 21 33  1  0  0  0  0
 34 35  1  0  0  0  0
 38 42  1  0  0  0  0
 39 40  2  0  0  0  0
 39 44  1  0  0  0  0
 39 45  1  0  0  0  0
 40 41  1  0  0  0  0
 40 46  1  0  0  0  0
 41 42  2  0  0  0  0
 41 47  1  0  0  0  0
 42 43  1  0  0  0  0
 43 44  2  0  0  0  0
 43 48  1  0  0  0  0
 44 49  1  0  0  0  0
M  CHG  1   3  -1
M  END
$$$$
