p38a_2aa
 OpenBabel02232411163D
Structure written by MMmdl.
 43 45  0  0  0  0  0  0  0  0999 V2000
   38.3350   36.6040   17.0560 C   0  0  0  0  0  0  0  0  0  0  0  0
   34.5260   34.9630   21.0080 C   0  0  0  0  0  0  0  0  0  0  0  0
   37.5480   36.1100   18.0920 C   0  0  0  0  0  0  0  0  0  0  0  0
   33.9800   38.9050   23.7740 C   0  0  0  0  0  0  0  0  0  0  0  0
   32.9490   38.8980   26.1330 C   0  0  0  0  0  0  0  0  0  0  0  0
   34.7250   37.8250   21.3360 C   0  0  0  0  0  0  0  0  0  0  0  0
   35.1530   37.2240   20.1030 C   0  0  0  0  0  0  0  0  0  0  0  0
   37.6980   36.7810   15.8200 C   0  0  0  0  0  0  0  0  0  0  0  0
   36.3550   36.4710   15.5930 C   0  0  0  0  0  0  0  0  0  0  0  0
   35.5900   35.9580   16.6450 C   0  0  0  0  0  0  0  0  0  0  0  0
   34.2350   37.0040   22.3910 C   0  0  0  0  0  0  0  0  0  0  0  0
   34.7740   39.2250   21.5840 C   0  0  0  0  0  0  0  0  0  0  0  0
   35.0770   35.8790   19.9750 C   0  0  0  0  0  0  0  0  0  0  0  0
   36.1940   35.7690   17.8910 C   0  0  0  0  0  0  0  0  0  0  0  0
   33.6430   34.7810   23.3630 C   0  0  0  0  0  0  0  0  0  0  0  0
   38.0670   35.9630   19.3050 F   0  0  0  0  0  0  0  0  0  0  0  0
   35.4690   35.1030   18.8860 O   0  0  0  0  0  0  0  0  0  0  0  0
   34.4240   39.7750   22.7550 N   0  0  0  0  0  0  0  0  0  0  0  0
   34.4000   33.7640   20.8910 O   0  0  0  0  0  0  0  0  0  0  0  0
   34.1230   35.6160   22.2270 N   0  0  0  0  0  0  0  0  0  0  0  0
   33.8410   37.5440   23.5910 N   0  0  0  0  0  0  0  0  0  0  0  0
   33.7490   39.4690   25.0090 N   0  0  0  0  0  0  0  0  0  0  0  0
   39.3830   36.8750   17.2100 H   0  0  0  0  0  0  0  0  0  0  0  0
   31.9050   39.9640   26.5770 C   0  0  0  0  0  0  0  0  0  0  0  0
   35.5340   37.8760   19.3150 H   0  0  0  0  0  0  0  0  0  0  0  0
   35.8920   36.6390   14.6190 H   0  0  0  0  0  0  0  0  0  0  0  0
   34.5320   35.7240   16.4880 H   0  0  0  0  0  0  0  0  0  0  0  0
   35.1030   39.9090   20.7840 H   0  0  0  0  0  0  0  0  0  0  0  0
   34.2410   35.0030   24.2880 H   0  0  0  0  0  0  0  0  0  0  0  0
   32.5630   35.0020   23.5710 H   0  0  0  0  0  0  0  0  0  0  0  0
   33.7540   33.6920   23.1160 H   0  0  0  0  0  0  0  0  0  0  0  0
   33.8300   40.5100   25.0800 H   0  0  0  0  0  0  0  0  0  0  0  0
   38.3970   37.3130   14.8210 F   0  0  0  0  0  0  0  0  0  0  0  0
   32.2240   37.5460   25.9230 C   0  0  0  0  0  0  0  0  0  0  0  0
   31.2680   37.6000   24.8490 O   0  0  0  0  0  0  0  0  0  0  0  0
   31.7820   37.4990   24.0130 H   0  0  0  0  0  0  0  0  0  0  0  0
   32.9580   36.7230   25.7480 H   0  0  0  0  0  0  0  0  0  0  0  0
   31.5990   37.3190   26.8230 H   0  0  0  0  0  0  0  0  0  0  0  0
   31.0550   40.3390   25.4920 O   0  0  0  0  0  0  0  0  0  0  0  0
   31.2870   39.5560   27.4130 H   0  0  0  0  0  0  0  0  0  0  0  0
   32.4010   40.9090   26.8890 H   0  0  0  0  0  0  0  0  0  0  0  0
   30.7160   39.4930   25.0760 H   0  0  0  0  0  0  0  0  0  0  0  0
   33.6840   38.7440   26.9850 H   0  0  0  0  0  0  0  0  0  0  0  0
  1  3  2  0  0  0  0
  1  8  1  0  0  0  0
  1 23  1  0  0  0  0
  2 13  1  0  0  0  0
  2 19  2  0  0  0  0
  2 20  1  0  0  0  0
  3 14  1  0  0  0  0
  3 16  1  0  0  0  0
  4 18  2  0  0  0  0
  4 21  1  0  0  0  0
  4 22  1  0  0  0  0
  5 22  1  0  0  0  0
  5 24  1  0  0  0  0
  5 34  1  0  0  0  0
  5 43  1  0  0  0  0
  6  7  1  0  0  0  0
  6 11  1  0  0  0  0
  6 12  2  0  0  0  0
  7 13  2  0  0  0  0
  7 25  1  0  0  0  0
  8  9  2  0  0  0  0
  8 33  1  0  0  0  0
  9 10  1  0  0  0  0
  9 26  1  0  0  0  0
 10 14  2  0  0  0  0
 10 27  1  0  0  0  0
 11 20  1  0  0  0  0
 11 21  2  0  0  0  0
 12 18  1  0  0  0  0
 12 28  1  0  0  0  0
 13 17  1  0  0  0  0
 14 17  1  0  0  0  0
 15 20  1  0  0  0  0
 15 29  1  0  0  0  0
 15 30  1  0  0  0  0
 15 31  1  0  0  0  0
 22 32  1  0  0  0  0
 24 39  1  0  0  0  0
 24 40  1  0  0  0  0
 24 41  1  0  0  0  0
 34 35  1  0  0  0  0
 34 37  1  0  0  0  0
 34 38  1  0  0  0  0
 35 36  1  0  0  0  0
 39 42  1  0  0  0  0
M  END
$$$$
