18629-1
                    3D
 Schrodinger Suite 2022-3.
 41 42  0  0  1  0  0  0  0  0999 V2000
   25.8460    4.7720   30.3840 C   0  0  0  0  0  0  0  0  0  0  0  0
   24.5280    4.8550   29.9270 C   0  0  0  0  0  0  0  0  0  0  0  0
   23.5260    4.0970   30.5510 C   0  0  0  0  0  0  0  0  0  0  0  0
   23.8600    3.2380   31.6050 C   0  0  0  0  0  0  0  0  0  0  0  0
   25.1820    3.1660   32.0770 C   0  0  0  0  0  0  0  0  0  0  0  0
   26.1750    3.9410   31.4570 C   0  0  0  0  0  0  0  0  0  0  0  0
   22.0910    4.2080   30.1050 C   0  0  0  0  0  0  0  0  0  0  0  0
   21.2940    5.2120   30.9210 C   0  0  0  0  0  0  0  0  0  0  0  0
   21.8530    6.5130   30.9280 N   0  0  0  0  0  0  0  0  0  0  0  0
   21.2870    7.6760   31.5010 C   0  0  0  0  0  0  0  0  0  0  0  0
   20.2440    4.9550   31.4700 O   0  0  0  0  0  0  0  0  0  0  0  0
   22.0230    8.8080   31.1850 N   0  0  0  0  0  0  0  0  0  0  0  0
   21.5530   10.0010   31.6170 C   0  0  0  0  0  0  0  0  0  0  0  0
   20.3680   10.1690   32.3950 C   0  0  0  0  0  0  0  0  0  0  0  0
   19.6490    8.9780   32.7320 C   0  0  0  0  0  0  0  0  0  0  0  0
   20.1290    7.7220   32.2710 C   0  0  0  0  0  0  0  0  0  0  0  0
   18.4960    9.0320   33.4720 N   0  0  0  0  0  0  0  0  0  0  0  0
   19.9620   11.4720   32.7540 C   0  0  0  0  0  0  0  0  0  0  0  0
   22.2050   11.1380   31.2890 O   0  0  0  0  0  0  0  0  0  0  0  0
   23.4830   11.0630   30.5510 C   0  0  0  0  0  0  0  0  0  0  0  0
   23.2350   10.8420   29.0740 C   0  0  0  0  0  0  0  0  0  0  0  0
   19.6790   12.5680   33.0070 N   0  0  0  0  0  0  0  0  0  0  0  0
   26.6270    5.3660   29.8970 H   0  0  0  0  0  0  0  0  0  0  0  0
   23.0970    2.6050   32.0600 H   0  0  0  0  0  0  0  0  0  0  0  0
   19.5730    6.8140   32.5130 H   0  0  0  0  0  0  0  0  0  0  0  0
   21.6010    3.2020   30.1950 H   0  0  0  0  0  0  0  0  0  0  0  0
   22.0390    4.5250   29.0320 H   0  0  0  0  0  0  0  0  0  0  0  0
   22.7530    6.6650   30.4290 H   0  0  0  0  0  0  0  0  0  0  0  0
   17.9980    8.1660   33.7540 H   0  0  0  0  0  0  0  0  0  0  0  0
   18.1060    9.9220   33.7840 H   0  0  0  0  0  0  0  0  0  0  0  0
   24.1250   10.2700   30.9960 H   0  0  0  0  0  0  0  0  0  0  0  0
   23.8690   12.0890   30.7650 H   0  0  0  0  0  0  0  0  0  0  0  0
   24.1930   10.9870   28.5150 H   0  0  0  0  0  0  0  0  0  0  0  0
   22.8740    9.8060   28.8720 H   0  0  0  0  0  0  0  0  0  0  0  0
   22.4900   11.5650   28.6740 H   0  0  0  0  0  0  0  0  0  0  0  0
   27.2090    3.8950   31.8070 H   0  0  0  0  0  0  0  0  0  0  0  0
   24.3000    5.5120   29.0860 H   0  0  0  0  0  0  0  0  0  0  0  0
   25.5130    2.2690   33.2240 C   0  0  0  0  0  0  0  0  0  0  0  0
   26.5880    2.3450   33.5180 H   0  0  0  0  0  0  0  0  0  0  0  0
   24.8930    2.5270   34.1180 H   0  0  0  0  0  0  0  0  0  0  0  0
   25.3070    1.2010   32.9560 H   0  0  0  0  0  0  0  0  0  0  0  0
  1  2  1  0  0  0  0
  1  6  2  0  0  0  0
  1 23  1  0  0  0  0
  2  3  2  0  0  0  0
  2 37  1  0  0  0  0
  3  4  1  0  0  0  0
  3  7  1  0  0  0  0
  4  5  2  0  0  0  0
  4 24  1  0  0  0  0
  5  6  1  0  0  0  0
  5 38  1  0  0  0  0
  6 36  1  0  0  0  0
  7  8  1  0  0  0  0
  7 26  1  0  0  0  0
  7 27  1  0  0  0  0
  8  9  1  0  0  0  0
  8 11  2  0  0  0  0
  9 10  1  0  0  0  0
  9 28  1  0  0  0  0
 10 12  1  0  0  0  0
 10 16  2  0  0  0  0
 12 13  2  0  0  0  0
 13 14  1  0  0  0  0
 13 19  1  0  0  0  0
 14 15  2  0  0  0  0
 14 18  1  0  0  0  0
 15 16  1  0  0  0  0
 15 17  1  0  0  0  0
 16 25  1  0  0  0  0
 17 29  1  0  0  0  0
 17 30  1  0  0  0  0
 18 22  3  0  0  0  0
 19 20  1  0  0  0  0
 20 21  1  0  0  0  0
 20 31  1  0  0  0  0
 20 32  1  0  0  0  0
 21 33  1  0  0  0  0
 21 34  1  0  0  0  0
 21 35  1  0  0  0  0
 38 39  1  0  0  0  0
 38 40  1  0  0  0  0
 38 41  1  0  0  0  0
M  END
$$$$
