31
 OpenBabel02232411163D
Structure written by MMmdl.
 41 43  0  0  0  0  0  0  0  0999 V2000
    3.4140  -48.2620    7.1200 O   0  0  0  0  0  0  0  0  0  0  0  0
    3.0210  -49.2490    6.4850 C   0  0  0  0  0  0  0  0  0  0  0  0
    3.7310  -50.1070    5.9250 O   0  5  0  0  0  0  0  0  0  0  0  0
    1.5030  -49.4970    6.3760 C   0  0  0  0  0  0  0  0  0  0  0  0
   -0.3980  -50.7670    6.5100 C   0  0  0  0  0  0  0  0  0  0  0  0
   -1.3550  -51.7730    6.7270 C   0  0  0  0  0  0  0  0  0  0  0  0
   -2.6730  -51.4820    6.4090 C   0  0  0  0  0  0  0  0  0  0  0  0
   -3.0390  -50.2200    5.8810 C   0  0  0  0  0  0  0  0  0  0  0  0
   -2.0990  -49.2220    5.6660 C   0  0  0  0  0  0  0  0  0  0  0  0
   -0.7530  -49.4720    5.9860 C   0  0  0  0  0  0  0  0  0  0  0  0
    0.4630  -48.6890    5.9280 C   0  0  0  0  0  0  0  0  0  0  0  0
    0.5090  -47.2760    5.4700 C   0  0  0  0  0  0  0  0  0  0  0  0
    0.3850  -46.2660    6.6260 C   0  0  0  0  0  0  0  0  0  0  0  0
   -0.9670  -46.3050    7.3330 C   0  0  0  0  0  0  0  0  0  0  0  0
   -1.8860  -45.6860    6.3500 O   0  0  0  0  0  0  0  0  0  0  0  0
   -3.1560  -45.4010    6.7360 C   0  0  0  0  0  0  0  0  0  0  0  0
   -3.7780  -45.8940    7.8960 C   0  0  0  0  0  0  0  0  0  0  0  0
   -5.1000  -45.5100    8.1570 C   0  0  0  0  0  0  0  0  0  0  0  0
   -5.7940  -44.6470    7.3110 C   0  0  0  0  0  0  0  0  0  0  0  0
   -5.1570  -44.1710    6.1510 C   0  0  0  0  0  0  0  0  0  0  0  0
   -3.8550  -44.5430    5.8510 C   0  0  0  0  0  0  0  0  0  0  0  0
   -1.0790  -52.7460    7.1330 H   0  0  0  0  0  0  0  0  0  0  0  0
   -3.4500  -52.2300    6.5660 H   0  0  0  0  0  0  0  0  0  0  0  0
   -4.0870  -50.0400    5.6410 H   0  0  0  0  0  0  0  0  0  0  0  0
   -2.4070  -48.2590    5.2560 H   0  0  0  0  0  0  0  0  0  0  0  0
   -0.3460  -47.0980    4.7670 H   0  0  0  0  0  0  0  0  0  0  0  0
    1.4630  -47.0660    4.9280 H   0  0  0  0  0  0  0  0  0  0  0  0
    0.5290  -45.2340    6.2240 H   0  0  0  0  0  0  0  0  0  0  0  0
    1.1760  -46.4780    7.3880 H   0  0  0  0  0  0  0  0  0  0  0  0
   -0.9840  -45.6600    8.2370 H   0  0  0  0  0  0  0  0  0  0  0  0
   -1.3360  -47.3360    7.5150 H   0  0  0  0  0  0  0  0  0  0  0  0
   -3.2640  -46.5810    8.5660 H   0  0  0  0  0  0  0  0  0  0  0  0
   -3.3730  -44.1780    4.9490 H   0  0  0  0  0  0  0  0  0  0  0  0
    0.9880  -50.7570    6.7390 N   0  0  0  0  0  0  0  0  0  0  0  0
    1.5000  -51.5560    7.0920 H   0  0  0  0  0  0  0  0  0  0  0  0
   -5.7020  -43.5030    5.4800 H   0  0  0  0  0  0  0  0  0  0  0  0
   -6.8210  -44.3400    7.5100 H   0  0  0  0  0  0  0  0  0  0  0  0
   -7.0070  -45.6870    9.6590 F   0  0  0  0  0  0  0  0  0  0  0  0
   -5.7580  -46.0970    9.3790 C   0  0  0  0  0  0  0  0  0  0  0  0
   -5.8570  -47.4380    9.3570 F   0  0  0  0  0  0  0  0  0  0  0  0
   -5.1040  -45.8650   10.5300 F   0  0  0  0  0  0  0  0  0  0  0  0
  1  2  2  0  0  0  0
  2  3  1  0  0  0  0
  2  4  1  0  0  0  0
  4 11  2  0  0  0  0
  4 34  1  0  0  0  0
  5  6  2  0  0  0  0
  5 10  1  0  0  0  0
  5 34  1  0  0  0  0
  6  7  1  0  0  0  0
  6 22  1  0  0  0  0
  7  8  2  0  0  0  0
  7 23  1  0  0  0  0
  8  9  1  0  0  0  0
  8 24  1  0  0  0  0
  9 10  2  0  0  0  0
  9 25  1  0  0  0  0
 10 11  1  0  0  0  0
 11 12  1  0  0  0  0
 12 26  1  0  0  0  0
 12 27  1  0  0  0  0
 12 13  1  0  0  0  0
 13 14  1  0  0  0  0
 13 28  1  0  0  0  0
 13 29  1  0  0  0  0
 14 15  1  0  0  0  0
 14 30  1  0  0  0  0
 14 31  1  0  0  0  0
 15 16  1  0  0  0  0
 16 17  2  0  0  0  0
 16 21  1  0  0  0  0
 17 18  1  0  0  0  0
 17 32  1  0  0  0  0
 18 19  2  0  0  0  0
 18 39  1  0  0  0  0
 19 20  1  0  0  0  0
 19 37  1  0  0  0  0
 20 21  2  0  0  0  0
 20 36  1  0  0  0  0
 21 33  1  0  0  0  0
 34 35  1  0  0  0  0
 38 39  1  0  0  0  0
 39 40  1  0  0  0  0
 39 41  1  0  0  0  0
M  CHG  1   3  -1
M  END
$$$$
