p38a_2p
 OpenBabel02232411163D
Structure written by MMmdl.
 58 61  0  0  0  0  0  0  0  0999 V2000
   38.2260   36.4810   17.2580 C   0  0  0  0  0  0  0  0  0  0  0  0
   34.4020   35.2340   21.3780 C   0  0  0  0  0  0  0  0  0  0  0  0
   37.4510   36.0630   18.3360 C   0  0  0  0  0  0  0  0  0  0  0  0
   33.8170   39.4260   23.7260 C   0  0  0  0  0  0  0  0  0  0  0  0
   34.5820   38.1060   21.4250 C   0  0  0  0  0  0  0  0  0  0  0  0
   35.0280   37.3920   20.2600 C   0  0  0  0  0  0  0  0  0  0  0  0
   37.5650   36.6150   16.0300 C   0  0  0  0  0  0  0  0  0  0  0  0
   36.2100   36.3250   15.8500 C   0  0  0  0  0  0  0  0  0  0  0  0
   35.4550   35.8980   16.9480 C   0  0  0  0  0  0  0  0  0  0  0  0
   34.1040   37.3980   22.5650 C   0  0  0  0  0  0  0  0  0  0  0  0
   34.6070   39.5230   21.5150 C   0  0  0  0  0  0  0  0  0  0  0  0
   34.9650   36.0420   20.2610 C   0  0  0  0  0  0  0  0  0  0  0  0
   36.0810   35.7580   18.1900 C   0  0  0  0  0  0  0  0  0  0  0  0
   38.0010   35.9450   19.5370 F   0  0  0  0  0  0  0  0  0  0  0  0
   35.3690   35.1730   19.2480 O   0  0  0  0  0  0  0  0  0  0  0  0
   34.2550   40.1910   22.6200 N   0  0  0  0  0  0  0  0  0  0  0  0
   34.2430   34.0330   21.3650 O   0  0  0  0  0  0  0  0  0  0  0  0
   34.0050   35.9960   22.5350 N   0  0  0  0  0  0  0  0  0  0  0  0
   33.7190   38.0520   23.7120 N   0  0  0  0  0  0  0  0  0  0  0  0
   33.4450   40.1510   24.8320 N   0  0  0  0  0  0  0  0  0  0  0  0
   39.2860   36.7300   17.3720 H   0  0  0  0  0  0  0  0  0  0  0  0
   35.4120   37.9710   19.4170 H   0  0  0  0  0  0  0  0  0  0  0  0
   35.7310   36.4420   14.8750 H   0  0  0  0  0  0  0  0  0  0  0  0
   34.3860   35.6920   16.8270 H   0  0  0  0  0  0  0  0  0  0  0  0
   34.9220   40.1170   20.6430 H   0  0  0  0  0  0  0  0  0  0  0  0
   33.6660   41.1660   24.8550 H   0  0  0  0  0  0  0  0  0  0  0  0
   38.2570   37.0780   14.9920 F   0  0  0  0  0  0  0  0  0  0  0  0
   33.5180   38.3400   28.2350 C   0  0  0  0  0  0  0  0  0  0  0  0
   34.0540   38.7810   26.8660 C   0  0  0  0  0  0  0  0  0  0  0  0
   32.9840   39.6290   26.1500 C   0  0  0  0  0  0  0  0  0  0  0  0
   31.6680   38.8350   26.0450 C   0  0  0  0  0  0  0  0  0  0  0  0
   31.2250   38.4190   27.4530 C   0  0  0  0  0  0  0  0  0  0  0  0
   32.2480   37.6590   28.1350 O   0  0  0  0  0  0  0  0  0  0  0  0
   33.4060   39.2140   28.9170 H   0  0  0  0  0  0  0  0  0  0  0  0
   34.1710   37.5530   28.6810 H   0  0  0  0  0  0  0  0  0  0  0  0
   34.3020   37.8820   26.2520 H   0  0  0  0  0  0  0  0  0  0  0  0
   34.9860   39.3780   27.0080 H   0  0  0  0  0  0  0  0  0  0  0  0
   32.7980   40.5630   26.7630 H   0  0  0  0  0  0  0  0  0  0  0  0
   30.8810   39.4620   25.5660 H   0  0  0  0  0  0  0  0  0  0  0  0
   31.8300   37.9240   25.4190 H   0  0  0  0  0  0  0  0  0  0  0  0
   30.9710   39.3030   28.0760 H   0  0  0  0  0  0  0  0  0  0  0  0
   30.3860   37.6870   27.4140 H   0  0  0  0  0  0  0  0  0  0  0  0
   33.4790   35.2740   23.7390 C   0  0  0  0  0  0  0  0  0  0  0  0
   32.6430   35.8860   24.1750 H   0  0  0  0  0  0  0  0  0  0  0  0
   33.0760   34.2750   23.4060 H   0  0  0  0  0  0  0  0  0  0  0  0
   34.5770   35.0720   24.8020 C   0  0  0  0  0  0  0  0  0  0  0  0
   35.2890   34.2750   24.4800 H   0  0  0  0  0  0  0  0  0  0  0  0
   35.1650   36.0240   24.9090 H   0  0  0  0  0  0  0  0  0  0  0  0
   33.9830   34.7500   26.1780 C   0  0  0  0  0  0  0  0  0  0  0  0
   33.2660   35.5750   26.4590 H   0  0  0  0  0  0  0  0  0  0  0  0
   34.8110   34.8240   26.9410 H   0  0  0  0  0  0  0  0  0  0  0  0
   33.2090   33.1800   26.3190 S   0  0  0  0  0  0  0  0  0  0  0  0
   32.4550   32.8370   25.0920 O   0  0  0  0  0  0  0  0  0  0  0  0
   32.3180   33.1300   27.5050 O   0  0  0  0  0  0  0  0  0  0  0  0
   34.5460   32.0780   26.5260 C   0  0  0  0  0  0  0  0  0  0  0  0
   35.0560   32.2560   27.5110 H   0  0  0  0  0  0  0  0  0  0  0  0
   34.2120   31.0070   26.5240 H   0  0  0  0  0  0  0  0  0  0  0  0
   35.3170   32.1860   25.7240 H   0  0  0  0  0  0  0  0  0  0  0  0
  1  3  2  0  0  0  0
  1  7  1  0  0  0  0
  1 21  1  0  0  0  0
  2 12  1  0  0  0  0
  2 17  2  0  0  0  0
  2 18  1  0  0  0  0
  3 13  1  0  0  0  0
  3 14  1  0  0  0  0
  4 16  2  0  0  0  0
  4 19  1  0  0  0  0
  4 20  1  0  0  0  0
  5  6  1  0  0  0  0
  5 10  1  0  0  0  0
  5 11  2  0  0  0  0
  6 12  2  0  0  0  0
  6 22  1  0  0  0  0
  7  8  2  0  0  0  0
  7 27  1  0  0  0  0
  8  9  1  0  0  0  0
  8 23  1  0  0  0  0
  9 13  2  0  0  0  0
  9 24  1  0  0  0  0
 10 18  1  0  0  0  0
 10 19  2  0  0  0  0
 11 16  1  0  0  0  0
 11 25  1  0  0  0  0
 12 15  1  0  0  0  0
 13 15  1  0  0  0  0
 18 43  1  0  0  0  0
 20 26  1  0  0  0  0
 20 30  1  0  0  0  0
 28 29  1  0  0  0  0
 28 33  1  0  0  0  0
 28 34  1  0  0  0  0
 28 35  1  0  0  0  0
 29 30  1  0  0  0  0
 29 36  1  0  0  0  0
 29 37  1  0  0  0  0
 30 31  1  0  0  0  0
 30 38  1  0  0  0  0
 31 32  1  0  0  0  0
 31 39  1  0  0  0  0
 31 40  1  0  0  0  0
 32 33  1  0  0  0  0
 32 41  1  0  0  0  0
 32 42  1  0  0  0  0
 43 44  1  0  0  0  0
 43 45  1  0  0  0  0
 43 46  1  0  0  0  0
 46 47  1  0  0  0  0
 46 48  1  0  0  0  0
 46 49  1  0  0  0  0
 49 50  1  0  0  0  0
 49 51  1  0  0  0  0
 49 52  1  0  0  0  0
 52 53  2  0  0  0  0
 52 54  2  0  0  0  0
 52 55  1  0  0  0  0
 55 56  1  0  0  0  0
 55 57  1  0  0  0  0
 55 58  1  0  0  0  0
M  END
$$$$
