18638-1
 OpenBabel02232411163D
Structure written by MMmdl.
 52 53  0  0  0  0  0  0  0  0999 V2000
   24.0550   12.4070   30.3070 C   0  0  0  0  0  0  0  0  0  0  0  0
   23.6170   10.9660   30.4910 C   0  0  0  0  0  0  0  0  0  0  0  0
   22.3350   11.0980   31.2290 O   0  0  0  0  0  0  0  0  0  0  0  0
   21.6890    9.9730   31.6020 C   0  0  0  0  0  0  0  0  0  0  0  0
   22.1660    8.7690   31.2000 N   0  0  0  0  0  0  0  0  0  0  0  0
   21.4240    7.6490   31.5380 C   0  0  0  0  0  0  0  0  0  0  0  0
   20.2560    7.7190   32.2930 C   0  0  0  0  0  0  0  0  0  0  0  0
   19.7700    8.9830   32.7200 C   0  0  0  0  0  0  0  0  0  0  0  0
   18.6030    9.0510   33.4390 N   0  0  0  0  0  0  0  0  0  0  0  0
   20.5000   10.1640   32.3680 C   0  0  0  0  0  0  0  0  0  0  0  0
   20.0960   11.4740   32.7040 C   0  0  0  0  0  0  0  0  0  0  0  0
   19.8070   12.5710   32.9440 N   0  0  0  0  0  0  0  0  0  0  0  0
   21.9660    6.4500   31.0080 N   0  0  0  0  0  0  0  0  0  0  0  0
   21.2470    5.2440   30.8500 C   0  0  0  0  0  0  0  0  0  0  0  0
   20.1410    5.0780   31.3200 O   0  0  0  0  0  0  0  0  0  0  0  0
   21.9290    4.2180   29.9610 C   0  0  0  0  0  0  0  0  0  0  0  0
   23.2560    3.7140   30.4440 C   0  0  0  0  0  0  0  0  0  0  0  0
   24.4550    4.3710   30.0340 C   0  0  0  0  0  0  0  0  0  0  0  0
   24.2090    5.4990   29.2560 O   0  0  0  0  0  0  0  0  0  0  0  0
   25.2760    6.4820   29.1740 C   0  0  0  0  0  0  0  0  0  0  0  0
   25.7060    3.8620   30.3530 C   0  0  0  0  0  0  0  0  0  0  0  0
   25.8210    2.6780   31.1090 C   0  0  0  0  0  0  0  0  0  0  0  0
   27.4360    2.0600   31.3880 S   0  0  0  0  0  0  0  0  0  0  0  0
   28.1200    1.8590   30.0860 O   0  0  0  0  0  0  0  0  0  0  0  0
   27.3260    0.7780   32.1270 O   0  0  0  0  0  0  0  0  0  0  0  0
   28.2270    3.2660   32.3530 C   0  0  0  0  0  0  0  0  0  0  0  0
   24.6490    2.0580   31.5610 C   0  0  0  0  0  0  0  0  0  0  0  0
   23.3680    2.5750   31.2220 C   0  0  0  0  0  0  0  0  0  0  0  0
   24.8340    0.9350   32.3210 O   0  0  0  0  0  0  0  0  0  0  0  0
   23.6760    0.3680   33.0010 C   0  0  0  0  0  0  0  0  0  0  0  0
   24.2230   12.9090   31.2860 H   0  0  0  0  0  0  0  0  0  0  0  0
   23.2950   12.9860   29.7310 H   0  0  0  0  0  0  0  0  0  0  0  0
   25.0120   12.4170   29.7270 H   0  0  0  0  0  0  0  0  0  0  0  0
   23.4040   10.4580   29.5240 H   0  0  0  0  0  0  0  0  0  0  0  0
   24.3220   10.3800   31.1230 H   0  0  0  0  0  0  0  0  0  0  0  0
   19.6930    6.8180   32.5460 H   0  0  0  0  0  0  0  0  0  0  0  0
   18.0930    8.1900   33.7110 H   0  0  0  0  0  0  0  0  0  0  0  0
   18.2100    9.9460   33.7320 H   0  0  0  0  0  0  0  0  0  0  0  0
   22.9020    6.5310   30.5480 H   0  0  0  0  0  0  0  0  0  0  0  0
   21.2330    3.3460   29.8360 H   0  0  0  0  0  0  0  0  0  0  0  0
   22.0740    4.7090   28.9550 H   0  0  0  0  0  0  0  0  0  0  0  0
   24.7380    7.3680   28.7660 H   0  0  0  0  0  0  0  0  0  0  0  0
   25.6930    6.6970   30.1820 H   0  0  0  0  0  0  0  0  0  0  0  0
   26.0560    6.1180   28.4720 H   0  0  0  0  0  0  0  0  0  0  0  0
   26.6050    4.3910   30.0160 H   0  0  0  0  0  0  0  0  0  0  0  0
   28.2920    4.2590   31.8350 H   0  0  0  0  0  0  0  0  0  0  0  0
   29.2810    2.9820   32.6110 H   0  0  0  0  0  0  0  0  0  0  0  0
   27.6970    3.4460   33.3220 H   0  0  0  0  0  0  0  0  0  0  0  0
   22.4660    2.0670   31.5660 H   0  0  0  0  0  0  0  0  0  0  0  0
   22.9320   -0.0060   32.2660 H   0  0  0  0  0  0  0  0  0  0  0  0
   23.2420    1.1150   33.6980 H   0  0  0  0  0  0  0  0  0  0  0  0
   24.1400   -0.4780   33.5640 H   0  0  0  0  0  0  0  0  0  0  0  0
  1  2  1  0  0  0  0
  1 31  1  0  0  0  0
  1 32  1  0  0  0  0
  1 33  1  0  0  0  0
  2  3  1  0  0  0  0
  2 34  1  0  0  0  0
  2 35  1  0  0  0  0
  3  4  1  0  0  0  0
  4 10  2  0  0  0  0
  4  5  1  0  0  0  0
  5  6  2  0  0  0  0
  6  7  1  0  0  0  0
  6 13  1  0  0  0  0
  7  8  2  0  0  0  0
  7 36  1  0  0  0  0
  8  9  1  0  0  0  0
  8 10  1  0  0  0  0
  9 37  1  0  0  0  0
  9 38  1  0  0  0  0
 10 11  1  0  0  0  0
 11 12  3  0  0  0  0
 13 14  1  0  0  0  0
 13 39  1  0  0  0  0
 14 15  2  0  0  0  0
 14 16  1  0  0  0  0
 16 17  1  0  0  0  0
 16 40  1  0  0  0  0
 16 41  1  0  0  0  0
 17 28  2  0  0  0  0
 17 18  1  0  0  0  0
 18 19  1  0  0  0  0
 18 21  2  0  0  0  0
 19 20  1  0  0  0  0
 20 42  1  0  0  0  0
 20 43  1  0  0  0  0
 20 44  1  0  0  0  0
 21 22  1  0  0  0  0
 21 45  1  0  0  0  0
 22 23  1  0  0  0  0
 22 27  2  0  0  0  0
 23 24  2  0  0  0  0
 23 25  2  0  0  0  0
 23 26  1  0  0  0  0
 26 46  1  0  0  0  0
 26 47  1  0  0  0  0
 26 48  1  0  0  0  0
 27 28  1  0  0  0  0
 27 29  1  0  0  0  0
 28 49  1  0  0  0  0
 29 30  1  0  0  0  0
 30 50  1  0  0  0  0
 30 51  1  0  0  0  0
 30 52  1  0  0  0  0
M  END
$$$$
