p38a_2m
 OpenBabel02232411163D
Structure written by MMmdl.
 50 54  0  0  0  0  0  0  0  0999 V2000
   38.2410   36.5360   17.1780 C   0  0  0  0  0  0  0  0  0  0  0  0
   34.5010   35.1500   21.2430 C   0  0  0  0  0  0  0  0  0  0  0  0
   37.4410   36.0910   18.2270 C   0  0  0  0  0  0  0  0  0  0  0  0
   33.9880   39.2510   23.7680 C   0  0  0  0  0  0  0  0  0  0  0  0
   34.5820   38.0290   21.3660 C   0  0  0  0  0  0  0  0  0  0  0  0
   34.9680   37.3650   20.1510 C   0  0  0  0  0  0  0  0  0  0  0  0
   37.6060   36.7100   15.9410 C   0  0  0  0  0  0  0  0  0  0  0  0
   36.2530   36.4380   15.7240 C   0  0  0  0  0  0  0  0  0  0  0  0
   35.4730   35.9810   16.7920 C   0  0  0  0  0  0  0  0  0  0  0  0
   34.2120   37.2720   22.5160 C   0  0  0  0  0  0  0  0  0  0  0  0
   34.5680   39.4440   21.4970 C   0  0  0  0  0  0  0  0  0  0  0  0
   34.9600   36.0140   20.1210 C   0  0  0  0  0  0  0  0  0  0  0  0
   36.0720   35.8000   18.0410 C   0  0  0  0  0  0  0  0  0  0  0  0
   37.9620   35.9370   19.4370 F   0  0  0  0  0  0  0  0  0  0  0  0
   35.3320   35.1870   19.0610 O   0  0  0  0  0  0  0  0  0  0  0  0
   34.2840   40.0640   22.6500 N   0  0  0  0  0  0  0  0  0  0  0  0
   34.4180   33.9440   21.1990 O   0  0  0  0  0  0  0  0  0  0  0  0
   34.1460   35.8660   22.4430 N   0  0  0  0  0  0  0  0  0  0  0  0
   33.9220   37.8740   23.7160 N   0  0  0  0  0  0  0  0  0  0  0  0
   33.8050   39.9250   24.9530 N   0  0  0  0  0  0  0  0  0  0  0  0
   39.2990   36.7740   17.3190 H   0  0  0  0  0  0  0  0  0  0  0  0
   35.2680   37.9790   19.2990 H   0  0  0  0  0  0  0  0  0  0  0  0
   35.7940   36.5910   14.7450 H   0  0  0  0  0  0  0  0  0  0  0  0
   34.4060   35.7840   16.6420 H   0  0  0  0  0  0  0  0  0  0  0  0
   34.7880   40.0790   20.6240 H   0  0  0  0  0  0  0  0  0  0  0  0
   33.8150   40.9650   24.9340 H   0  0  0  0  0  0  0  0  0  0  0  0
   38.3220   37.1950   14.9290 F   0  0  0  0  0  0  0  0  0  0  0  0
   33.6410   37.8610   28.1980 C   0  0  0  0  0  0  0  0  0  0  0  0
   34.2110   38.3090   26.8460 C   0  0  0  0  0  0  0  0  0  0  0  0
   33.2830   39.3780   26.2400 C   0  0  0  0  0  0  0  0  0  0  0  0
   31.8460   38.8320   26.1200 C   0  0  0  0  0  0  0  0  0  0  0  0
   31.3730   38.3430   27.4960 C   0  0  0  0  0  0  0  0  0  0  0  0
   32.2830   37.3790   28.0730 O   0  0  0  0  0  0  0  0  0  0  0  0
   33.6600   38.6940   28.9390 H   0  0  0  0  0  0  0  0  0  0  0  0
   34.1750   36.9620   28.5820 H   0  0  0  0  0  0  0  0  0  0  0  0
   34.2840   37.4280   26.1620 H   0  0  0  0  0  0  0  0  0  0  0  0
   35.2340   38.7290   26.9910 H   0  0  0  0  0  0  0  0  0  0  0  0
   33.2700   40.2780   26.9290 H   0  0  0  0  0  0  0  0  0  0  0  0
   31.1610   39.6310   25.7510 H   0  0  0  0  0  0  0  0  0  0  0  0
   31.8190   37.9820   25.3960 H   0  0  0  0  0  0  0  0  0  0  0  0
   31.2620   39.1920   28.2060 H   0  0  0  0  0  0  0  0  0  0  0  0
   30.4320   37.7530   27.4120 H   0  0  0  0  0  0  0  0  0  0  0  0
   33.7270   35.1220   23.6510 C   0  0  0  0  0  0  0  0  0  0  0  0
   32.7830   33.9310   23.5430 C   0  0  0  0  0  0  0  0  0  0  0  0
   32.2820   35.2320   24.1330 C   0  0  0  0  0  0  0  0  0  0  0  0
   34.5350   35.1030   24.4080 H   0  0  0  0  0  0  0  0  0  0  0  0
   32.3900   33.6090   22.5710 H   0  0  0  0  0  0  0  0  0  0  0  0
   32.9700   33.0800   24.2180 H   0  0  0  0  0  0  0  0  0  0  0  0
   31.5580   35.8330   23.5690 H   0  0  0  0  0  0  0  0  0  0  0  0
   32.1120   35.3070   25.2170 H   0  0  0  0  0  0  0  0  0  0  0  0
  1  3  2  0  0  0  0
  1  7  1  0  0  0  0
  1 21  1  0  0  0  0
  2 12  1  0  0  0  0
  2 17  2  0  0  0  0
  2 18  1  0  0  0  0
  3 13  1  0  0  0  0
  3 14  1  0  0  0  0
  4 16  2  0  0  0  0
  4 19  1  0  0  0  0
  4 20  1  0  0  0  0
  5  6  1  0  0  0  0
  5 10  1  0  0  0  0
  5 11  2  0  0  0  0
  6 12  2  0  0  0  0
  6 22  1  0  0  0  0
  7  8  2  0  0  0  0
  7 27  1  0  0  0  0
  8  9  1  0  0  0  0
  8 23  1  0  0  0  0
  9 13  2  0  0  0  0
  9 24  1  0  0  0  0
 10 18  1  0  0  0  0
 10 19  2  0  0  0  0
 11 16  1  0  0  0  0
 11 25  1  0  0  0  0
 12 15  1  0  0  0  0
 13 15  1  0  0  0  0
 18 43  1  0  0  0  0
 20 26  1  0  0  0  0
 20 30  1  0  0  0  0
 28 29  1  0  0  0  0
 28 33  1  0  0  0  0
 28 34  1  0  0  0  0
 28 35  1  0  0  0  0
 29 30  1  0  0  0  0
 29 36  1  0  0  0  0
 29 37  1  0  0  0  0
 30 31  1  0  0  0  0
 30 38  1  0  0  0  0
 31 32  1  0  0  0  0
 31 39  1  0  0  0  0
 31 40  1  0  0  0  0
 32 33  1  0  0  0  0
 32 41  1  0  0  0  0
 32 42  1  0  0  0  0
 43 44  1  0  0  0  0
 43 45  1  0  0  0  0
 43 46  1  0  0  0  0
 44 45  1  0  0  0  0
 44 47  1  0  0  0  0
 44 48  1  0  0  0  0
 45 49  1  0  0  0  0
 45 50  1  0  0  0  0
M  END
$$$$
