p38a_3flw
 OpenBabel02232411163D
Structure written by MMmdl.
 49 51  0  0  0  0  0  0  0  0999 V2000
   38.2480   36.5190   17.1520 C   0  0  0  0  0  0  0  0  0  0  0  0
   37.6210   36.6990   15.9110 C   0  0  0  0  0  0  0  0  0  0  0  0
   34.8340   39.6940   27.4420 C   0  0  0  0  0  0  0  0  0  0  0  0
   34.8010   38.8140   28.7000 C   0  0  0  0  0  0  0  0  0  0  0  0
   32.4220   39.3730   26.6220 C   0  0  0  0  0  0  0  0  0  0  0  0
   34.2840   35.0450   23.7490 C   0  0  0  0  0  0  0  0  0  0  0  0
   37.9530   35.9110   19.4060 F   0  0  0  0  0  0  0  0  0  0  0  0
   37.4400   36.0680   18.1920 C   0  0  0  0  0  0  0  0  0  0  0  0
   38.3420   37.1960   14.9090 F   0  0  0  0  0  0  0  0  0  0  0  0
   36.2710   36.4240   15.6820 C   0  0  0  0  0  0  0  0  0  0  0  0
   35.4830   35.9600   16.7410 C   0  0  0  0  0  0  0  0  0  0  0  0
   36.0730   35.7770   17.9940 C   0  0  0  0  0  0  0  0  0  0  0  0
   35.3130   35.1710   19.0050 O   0  0  0  0  0  0  0  0  0  0  0  0
   35.0190   35.9850   20.0990 C   0  0  0  0  0  0  0  0  0  0  0  0
   35.0330   37.3370   20.1370 C   0  0  0  0  0  0  0  0  0  0  0  0
   34.7570   37.9950   21.3850 C   0  0  0  0  0  0  0  0  0  0  0  0
   34.6930   39.4070   21.5210 C   0  0  0  0  0  0  0  0  0  0  0  0
   34.5050   40.0180   22.7020 N   0  0  0  0  0  0  0  0  0  0  0  0
   34.6390   35.1190   21.2470 C   0  0  0  0  0  0  0  0  0  0  0  0
   34.4520   33.9240   21.2000 O   0  0  0  0  0  0  0  0  0  0  0  0
   34.4880   35.8230   22.4950 N   0  0  0  0  0  0  0  0  0  0  0  0
   34.5490   37.2210   22.5660 C   0  0  0  0  0  0  0  0  0  0  0  0
   34.3750   37.8170   23.7920 N   0  0  0  0  0  0  0  0  0  0  0  0
   34.3950   39.1960   23.8380 C   0  0  0  0  0  0  0  0  0  0  0  0
   34.3250   39.8230   25.0630 N   0  0  0  0  0  0  0  0  0  0  0  0
   33.9230   39.1260   26.3270 C   0  0  0  0  0  0  0  0  0  0  0  0
   31.5000   38.2340   26.1660 C   0  0  0  0  0  0  0  0  0  0  0  0
   31.3300   38.1870   24.7390 O   0  0  0  0  0  0  0  0  0  0  0  0
   35.7990   39.2320   29.6490 O   0  0  0  0  0  0  0  0  0  0  0  0
   39.3050   36.7570   17.3030 H   0  0  0  0  0  0  0  0  0  0  0  0
   34.5120   40.7340   27.6950 H   0  0  0  0  0  0  0  0  0  0  0  0
   35.8800   39.7470   27.0550 H   0  0  0  0  0  0  0  0  0  0  0  0
   33.8500   38.9430   29.2680 H   0  0  0  0  0  0  0  0  0  0  0  0
   34.9740   37.7420   28.4440 H   0  0  0  0  0  0  0  0  0  0  0  0
   32.2910   39.4870   27.7280 H   0  0  0  0  0  0  0  0  0  0  0  0
   32.0980   40.3340   26.1540 H   0  0  0  0  0  0  0  0  0  0  0  0
   33.3000   35.3180   24.2160 H   0  0  0  0  0  0  0  0  0  0  0  0
   34.2950   33.9460   23.5310 H   0  0  0  0  0  0  0  0  0  0  0  0
   35.0990   35.2840   24.4850 H   0  0  0  0  0  0  0  0  0  0  0  0
   35.8190   36.5830   14.7010 H   0  0  0  0  0  0  0  0  0  0  0  0
   34.4180   35.7610   16.5820 H   0  0  0  0  0  0  0  0  0  0  0  0
   35.2610   37.9550   19.2660 H   0  0  0  0  0  0  0  0  0  0  0  0
   34.7840   40.0530   20.6320 H   0  0  0  0  0  0  0  0  0  0  0  0
   34.1850   40.8540   25.0970 H   0  0  0  0  0  0  0  0  0  0  0  0
   34.1170   38.0230   26.2270 H   0  0  0  0  0  0  0  0  0  0  0  0
   31.8990   37.2470   26.5010 H   0  0  0  0  0  0  0  0  0  0  0  0
   30.4650   38.4030   26.5420 H   0  0  0  0  0  0  0  0  0  0  0  0
   32.2100   38.2650   24.3330 H   0  0  0  0  0  0  0  0  0  0  0  0
   36.6910   39.1770   29.2260 H   0  0  0  0  0  0  0  0  0  0  0  0
  1  2  2  0  0  0  0
  1  8  1  0  0  0  0
  1 30  1  0  0  0  0
  2  9  1  0  0  0  0
  2 10  1  0  0  0  0
  3  4  1  0  0  0  0
  3 26  1  0  0  0  0
  3 31  1  0  0  0  0
  3 32  1  0  0  0  0
  4 29  1  0  0  0  0
  4 33  1  0  0  0  0
  4 34  1  0  0  0  0
  5 26  1  0  0  0  0
  5 27  1  0  0  0  0
  5 35  1  0  0  0  0
  5 36  1  0  0  0  0
  6 21  1  0  0  0  0
  6 37  1  0  0  0  0
  6 38  1  0  0  0  0
  6 39  1  0  0  0  0
  7  8  1  0  0  0  0
  8 12  2  0  0  0  0
 10 11  2  0  0  0  0
 10 40  1  0  0  0  0
 11 12  1  0  0  0  0
 11 41  1  0  0  0  0
 12 13  1  0  0  0  0
 13 14  1  0  0  0  0
 14 15  2  0  0  0  0
 14 19  1  0  0  0  0
 15 16  1  0  0  0  0
 15 42  1  0  0  0  0
 16 17  2  0  0  0  0
 16 22  1  0  0  0  0
 17 18  1  0  0  0  0
 17 43  1  0  0  0  0
 18 24  2  0  0  0  0
 19 20  2  0  0  0  0
 19 21  1  0  0  0  0
 21 22  1  0  0  0  0
 22 23  2  0  0  0  0
 23 24  1  0  0  0  0
 24 25  1  0  0  0  0
 25 26  1  0  0  0  0
 25 44  1  0  0  0  0
 26 45  1  0  0  0  0
 27 28  1  0  0  0  0
 27 46  1  0  0  0  0
 27 47  1  0  0  0  0
 28 48  1  0  0  0  0
 29 49  1  0  0  0  0
M  END
$$$$
