p38a_2t
 OpenBabel02232411163D
Structure written by MMmdl.
 47 50  0  0  0  0  0  0  0  0999 V2000
   38.3730   36.6460   16.9640 C   0  0  0  0  0  0  0  0  0  0  0  0
   34.7060   34.8430   20.9190 C   0  0  0  0  0  0  0  0  0  0  0  0
   37.5950   36.1210   17.9920 C   0  0  0  0  0  0  0  0  0  0  0  0
   34.0720   38.7250   23.7610 C   0  0  0  0  0  0  0  0  0  0  0  0
   34.8210   37.7020   21.3020 C   0  0  0  0  0  0  0  0  0  0  0  0
   35.1960   37.1420   20.0320 C   0  0  0  0  0  0  0  0  0  0  0  0
   37.7300   36.8390   15.7340 C   0  0  0  0  0  0  0  0  0  0  0  0
   36.3890   36.5230   15.5040 C   0  0  0  0  0  0  0  0  0  0  0  0
   35.6340   35.9740   16.5450 C   0  0  0  0  0  0  0  0  0  0  0  0
   34.4340   36.8520   22.3760 C   0  0  0  0  0  0  0  0  0  0  0  0
   34.8110   39.1020   21.5580 C   0  0  0  0  0  0  0  0  0  0  0  0
   35.1680   35.7980   19.8820 C   0  0  0  0  0  0  0  0  0  0  0  0
   36.2470   35.7600   17.7820 C   0  0  0  0  0  0  0  0  0  0  0  0
   38.1140   35.9650   19.2030 F   0  0  0  0  0  0  0  0  0  0  0  0
   35.5370   35.0570   18.7620 O   0  0  0  0  0  0  0  0  0  0  0  0
   34.4480   39.6230   22.7380 N   0  0  0  0  0  0  0  0  0  0  0  0
   34.6270   33.6420   20.7920 O   0  0  0  0  0  0  0  0  0  0  0  0
   34.3460   35.4560   22.1770 N   0  0  0  0  0  0  0  0  0  0  0  0
   34.1200   37.3530   23.6110 N   0  0  0  0  0  0  0  0  0  0  0  0
   33.7240   39.2950   24.9700 N   0  0  0  0  0  0  0  0  0  0  0  0
   39.4160   36.9300   17.1240 H   0  0  0  0  0  0  0  0  0  0  0  0
   35.4970   37.8230   19.2350 H   0  0  0  0  0  0  0  0  0  0  0  0
   35.9180   36.7150   14.5390 H   0  0  0  0  0  0  0  0  0  0  0  0
   34.5780   35.7310   16.3880 H   0  0  0  0  0  0  0  0  0  0  0  0
   35.0870   39.8100   20.7590 H   0  0  0  0  0  0  0  0  0  0  0  0
   33.7640   40.3400   25.0150 H   0  0  0  0  0  0  0  0  0  0  0  0
   38.4200   37.3930   14.7420 F   0  0  0  0  0  0  0  0  0  0  0  0
   31.3870   36.9070   24.8080 C   0  0  0  0  0  0  0  0  0  0  0  0
   32.4030   37.2560   25.9040 C   0  0  0  0  0  0  0  0  0  0  0  0
   32.7650   38.7460   25.9880 C   0  0  0  0  0  0  0  0  0  0  0  0
   31.4530   39.5660   25.9620 C   0  0  0  0  0  0  0  0  0  0  0  0
   30.6060   39.2000   24.7430 C   0  0  0  0  0  0  0  0  0  0  0  0
   30.2620   37.8060   24.7460 O   0  0  0  0  0  0  0  0  0  0  0  0
   30.8820   35.9370   25.0350 H   0  0  0  0  0  0  0  0  0  0  0  0
   31.8380   36.9100   23.7930 H   0  0  0  0  0  0  0  0  0  0  0  0
   33.3270   36.6400   25.7700 H   0  0  0  0  0  0  0  0  0  0  0  0
   31.9640   36.9770   26.9000 H   0  0  0  0  0  0  0  0  0  0  0  0
   33.2910   38.9310   26.9740 H   0  0  0  0  0  0  0  0  0  0  0  0
   30.8890   39.3150   26.8950 H   0  0  0  0  0  0  0  0  0  0  0  0
   31.6580   40.6580   25.9710 H   0  0  0  0  0  0  0  0  0  0  0  0
   29.5980   39.6640   24.7850 H   0  0  0  0  0  0  0  0  0  0  0  0
   31.1440   39.4370   23.8010 H   0  0  0  0  0  0  0  0  0  0  0  0
   33.8560   34.5620   23.2690 C   0  0  0  0  0  0  0  0  0  0  0  0
   33.0780   35.0920   23.8970 H   0  0  0  0  0  0  0  0  0  0  0  0
   33.3510   33.6540   22.8110 H   0  0  0  0  0  0  0  0  0  0  0  0
   34.9500   34.1340   24.1380 C   0  0  0  0  0  0  0  0  0  0  0  0
   35.8080   33.7910   24.8310 N   0  0  0  0  0  0  0  0  0  0  0  0
  1  3  2  0  0  0  0
  1  7  1  0  0  0  0
  1 21  1  0  0  0  0
  2 12  1  0  0  0  0
  2 17  2  0  0  0  0
  2 18  1  0  0  0  0
  3 13  1  0  0  0  0
  3 14  1  0  0  0  0
  4 16  2  0  0  0  0
  4 19  1  0  0  0  0
  4 20  1  0  0  0  0
  5  6  1  0  0  0  0
  5 10  1  0  0  0  0
  5 11  2  0  0  0  0
  6 12  2  0  0  0  0
  6 22  1  0  0  0  0
  7  8  2  0  0  0  0
  7 27  1  0  0  0  0
  8  9  1  0  0  0  0
  8 23  1  0  0  0  0
  9 13  2  0  0  0  0
  9 24  1  0  0  0  0
 10 18  1  0  0  0  0
 10 19  2  0  0  0  0
 11 16  1  0  0  0  0
 11 25  1  0  0  0  0
 12 15  1  0  0  0  0
 13 15  1  0  0  0  0
 18 43  1  0  0  0  0
 20 26  1  0  0  0  0
 20 30  1  0  0  0  0
 28 29  1  0  0  0  0
 28 33  1  0  0  0  0
 28 34  1  0  0  0  0
 28 35  1  0  0  0  0
 29 30  1  0  0  0  0
 29 36  1  0  0  0  0
 29 37  1  0  0  0  0
 30 31  1  0  0  0  0
 30 38  1  0  0  0  0
 31 32  1  0  0  0  0
 31 39  1  0  0  0  0
 31 40  1  0  0  0  0
 32 33  1  0  0  0  0
 32 41  1  0  0  0  0
 32 42  1  0  0  0  0
 43 44  1  0  0  0  0
 43 45  1  0  0  0  0
 43 46  1  0  0  0  0
 46 47  3  0  0  0  0
M  END
$$$$
