p38a_3flw
 OpenBabel02232411163D
Structure written by MMmdl.
 49 51  0  0  0  0  0  0  0  0999 V2000
   38.2410   36.5250   17.1540 C   0  0  0  0  0  0  0  0  0  0  0  0
   37.6120   36.7040   15.9140 C   0  0  0  0  0  0  0  0  0  0  0  0
   32.0840   38.7560   25.8450 C   0  0  0  0  0  0  0  0  0  0  0  0
   31.3590   39.6500   24.8310 C   0  0  0  0  0  0  0  0  0  0  0  0
   34.3690   38.2190   26.8900 C   0  0  0  0  0  0  0  0  0  0  0  0
   34.2210   35.0490   23.7430 C   0  0  0  0  0  0  0  0  0  0  0  0
   37.9530   35.9110   19.4070 F   0  0  0  0  0  0  0  0  0  0  0  0
   37.4370   36.0660   18.1940 C   0  0  0  0  0  0  0  0  0  0  0  0
   38.3290   37.2060   14.9120 F   0  0  0  0  0  0  0  0  0  0  0  0
   36.2630   36.4230   15.6870 C   0  0  0  0  0  0  0  0  0  0  0  0
   35.4790   35.9510   16.7460 C   0  0  0  0  0  0  0  0  0  0  0  0
   36.0720   35.7660   17.9980 C   0  0  0  0  0  0  0  0  0  0  0  0
   35.3180   35.1570   19.0100 O   0  0  0  0  0  0  0  0  0  0  0  0
   35.0250   35.9720   20.1030 C   0  0  0  0  0  0  0  0  0  0  0  0
   35.0560   37.3240   20.1400 C   0  0  0  0  0  0  0  0  0  0  0  0
   34.7770   37.9870   21.3840 C   0  0  0  0  0  0  0  0  0  0  0  0
   34.7500   39.4000   21.5160 C   0  0  0  0  0  0  0  0  0  0  0  0
   34.5400   40.0160   22.6890 N   0  0  0  0  0  0  0  0  0  0  0  0
   34.6250   35.1140   21.2500 C   0  0  0  0  0  0  0  0  0  0  0  0
   34.4320   33.9190   21.2030 O   0  0  0  0  0  0  0  0  0  0  0  0
   34.4630   35.8220   22.4930 N   0  0  0  0  0  0  0  0  0  0  0  0
   34.5300   37.2230   22.5630 C   0  0  0  0  0  0  0  0  0  0  0  0
   34.3270   37.8250   23.7810 N   0  0  0  0  0  0  0  0  0  0  0  0
   34.3510   39.2000   23.8220 C   0  0  0  0  0  0  0  0  0  0  0  0
   34.2220   39.8630   25.0350 N   0  0  0  0  0  0  0  0  0  0  0  0
   33.4890   39.2870   26.2120 C   0  0  0  0  0  0  0  0  0  0  0  0
   33.9410   37.9010   28.3250 C   0  0  0  0  0  0  0  0  0  0  0  0
   34.0410   39.0380   29.2060 O   0  0  0  0  0  0  0  0  0  0  0  0
   30.0250   39.1510   24.6270 O   0  0  0  0  0  0  0  0  0  0  0  0
   39.2960   36.7700   17.3040 H   0  0  0  0  0  0  0  0  0  0  0  0
   31.4790   38.6960   26.7820 H   0  0  0  0  0  0  0  0  0  0  0  0
   32.1660   37.7200   25.4340 H   0  0  0  0  0  0  0  0  0  0  0  0
   31.3250   40.7040   25.1810 H   0  0  0  0  0  0  0  0  0  0  0  0
   31.8080   39.5660   23.8170 H   0  0  0  0  0  0  0  0  0  0  0  0
   34.3370   37.2660   26.2990 H   0  0  0  0  0  0  0  0  0  0  0  0
   35.4300   38.5760   26.8850 H   0  0  0  0  0  0  0  0  0  0  0  0
   35.0230   35.2760   24.4970 H   0  0  0  0  0  0  0  0  0  0  0  0
   33.2300   35.3380   24.1880 H   0  0  0  0  0  0  0  0  0  0  0  0
   34.2210   33.9500   23.5260 H   0  0  0  0  0  0  0  0  0  0  0  0
   35.8070   36.5830   14.7080 H   0  0  0  0  0  0  0  0  0  0  0  0
   34.4150   35.7460   16.5880 H   0  0  0  0  0  0  0  0  0  0  0  0
   35.3000   37.9380   19.2700 H   0  0  0  0  0  0  0  0  0  0  0  0
   34.8850   40.0380   20.6280 H   0  0  0  0  0  0  0  0  0  0  0  0
   34.1230   40.9010   24.9920 H   0  0  0  0  0  0  0  0  0  0  0  0
   33.3720   40.1590   26.9220 H   0  0  0  0  0  0  0  0  0  0  0  0
   32.8620   37.6320   28.3910 H   0  0  0  0  0  0  0  0  0  0  0  0
   34.5830   37.0850   28.7380 H   0  0  0  0  0  0  0  0  0  0  0  0
   34.9350   39.4500   29.1130 H   0  0  0  0  0  0  0  0  0  0  0  0
   29.3840   39.7880   25.0450 H   0  0  0  0  0  0  0  0  0  0  0  0
  1  2  2  0  0  0  0
  1  8  1  0  0  0  0
  1 30  1  0  0  0  0
  2  9  1  0  0  0  0
  2 10  1  0  0  0  0
  3  4  1  0  0  0  0
  3 26  1  0  0  0  0
  3 31  1  0  0  0  0
  3 32  1  0  0  0  0
  4 29  1  0  0  0  0
  4 33  1  0  0  0  0
  4 34  1  0  0  0  0
  5 26  1  0  0  0  0
  5 27  1  0  0  0  0
  5 35  1  0  0  0  0
  5 36  1  0  0  0  0
  6 21  1  0  0  0  0
  6 37  1  0  0  0  0
  6 38  1  0  0  0  0
  6 39  1  0  0  0  0
  7  8  1  0  0  0  0
  8 12  2  0  0  0  0
 10 11  2  0  0  0  0
 10 40  1  0  0  0  0
 11 12  1  0  0  0  0
 11 41  1  0  0  0  0
 12 13  1  0  0  0  0
 13 14  1  0  0  0  0
 14 15  2  0  0  0  0
 14 19  1  0  0  0  0
 15 16  1  0  0  0  0
 15 42  1  0  0  0  0
 16 17  2  0  0  0  0
 16 22  1  0  0  0  0
 17 18  1  0  0  0  0
 17 43  1  0  0  0  0
 18 24  2  0  0  0  0
 19 20  2  0  0  0  0
 19 21  1  0  0  0  0
 21 22  1  0  0  0  0
 22 23  2  0  0  0  0
 23 24  1  0  0  0  0
 24 25  1  0  0  0  0
 25 26  1  0  0  0  0
 25 44  1  0  0  0  0
 26 45  1  0  0  0  0
 27 28  1  0  0  0  0
 27 46  1  0  0  0  0
 27 47  1  0  0  0  0
 28 48  1  0  0  0  0
 29 49  1  0  0  0  0
M  END
$$$$
