CAT-17d
 OpenBabel02232411143D
Structure written by MMmdl.
 42 45  0  0  1  0  0  0  0  0999 V2000
   11.6300   -2.3260    1.2400 C   0  0  0  0  0  0  0  0  0  0  0  0
   12.9790   -2.3020    0.6370 N   0  0  0  0  0  0  0  0  0  0  0  0
   14.1640   -2.3120    1.3640 C   0  0  0  0  0  0  0  0  0  0  0  0
   14.3050   -2.4280    2.7150 N   0  0  0  0  0  0  0  0  0  0  0  0
   15.2610   -2.2410    0.4910 N   0  3  0  0  0  0  0  0  0  0  0  0
   14.8160   -2.5730   -0.9150 C   0  0  1  0  0  0  0  0  0  0  0  0
   15.4070   -1.5670   -1.8800 C   0  0  0  0  0  0  0  0  0  0  0  0
   16.2390   -1.9710   -2.9300 C   0  0  0  0  0  0  0  0  0  0  0  0
   16.6920   -1.0220   -3.8540 C   0  0  0  0  0  0  0  0  0  0  0  0
   16.3370    0.3220   -3.7280 C   0  0  0  0  0  0  0  0  0  0  0  0
   15.5470    0.7430   -2.6430 C   0  0  0  0  0  0  0  0  0  0  0  0
   15.1900    2.1620   -2.4580 C   0  0  0  0  0  0  0  0  0  0  0  0
   15.3850    2.7890   -1.2160 C   0  0  0  0  0  0  0  0  0  0  0  0
   14.9530    4.1030   -1.0340 C   0  0  0  0  0  0  0  0  0  0  0  0
   14.3330    4.7660   -2.1070 C   0  0  0  0  0  0  0  0  0  0  0  0
   14.1800    4.1900   -3.3290 N   0  0  0  0  0  0  0  0  0  0  0  0
   14.6080    2.9140   -3.5030 C   0  0  0  0  0  0  0  0  0  0  0  0
   15.0810   -0.2100   -1.7240 C   0  0  0  0  0  0  0  0  0  0  0  0
   15.0300   -4.0360   -1.2730 C   0  0  0  0  0  0  0  0  0  0  0  0
   16.2510   -4.7900   -0.7750 C   0  0  0  0  0  0  0  0  0  0  0  0
   14.8870   -5.1320   -0.2220 C   0  0  0  0  0  0  0  0  0  0  0  0
   13.2640   -2.3900   -0.8140 C   0  0  0  0  0  0  0  0  0  0  0  0
   12.4030   -2.3290   -1.6300 O   0  0  0  0  0  0  0  0  0  0  0  0
   11.1610   -1.3110    1.1400 H   0  0  0  0  0  0  0  0  0  0  0  0
   11.0020   -3.0910    0.7070 H   0  0  0  0  0  0  0  0  0  0  0  0
   11.6810   -2.6080    2.3250 H   0  0  0  0  0  0  0  0  0  0  0  0
   13.5850   -2.0520    3.3800 H   0  0  0  0  0  0  0  0  0  0  0  0
   16.1890   -2.5950    0.8540 H   0  0  0  0  0  0  0  0  0  0  0  0
   16.5380   -3.0160   -3.0310 H   0  0  0  0  0  0  0  0  0  0  0  0
   17.3350   -1.3390   -4.6810 H   0  0  0  0  0  0  0  0  0  0  0  0
   16.6830    1.0420   -4.4760 H   0  0  0  0  0  0  0  0  0  0  0  0
   15.8630    2.2450   -0.3960 H   0  0  0  0  0  0  0  0  0  0  0  0
   15.0810    4.5920   -0.0650 H   0  0  0  0  0  0  0  0  0  0  0  0
   13.9360    5.7870   -1.9870 H   0  0  0  0  0  0  0  0  0  0  0  0
   14.4710    2.4730   -4.5040 H   0  0  0  0  0  0  0  0  0  0  0  0
   14.4690    0.1010   -0.8770 H   0  0  0  0  0  0  0  0  0  0  0  0
   14.6690   -4.2670   -2.2920 H   0  0  0  0  0  0  0  0  0  0  0  0
   16.9730   -4.2740   -0.1380 H   0  0  0  0  0  0  0  0  0  0  0  0
   16.7630   -5.4680   -1.4570 H   0  0  0  0  0  0  0  0  0  0  0  0
   14.6580   -4.8630    0.8170 H   0  0  0  0  0  0  0  0  0  0  0  0
   14.3970   -6.0700   -0.5170 H   0  0  0  0  0  0  0  0  0  0  0  0
   15.2820   -2.3720    3.1230 H   0  0  0  0  0  0  0  0  0  0  0  0
  1  2  1  0  0  0  0
  1 24  1  0  0  0  0
  1 25  1  0  0  0  0
  1 26  1  0  0  0  0
  2  3  1  0  0  0  0
  2 22  1  0  0  0  0
  3  4  1  0  0  0  0
  3  5  2  0  0  0  0
  4 27  1  0  0  0  0
  4 42  1  0  0  0  0
  5  6  1  0  0  0  0
  5 28  1  0  0  0  0
  6  7  1  6  0  0  0
  6 19  1  0  0  0  0
  6 22  1  0  0  0  0
  7  8  2  0  0  0  0
  7 18  1  0  0  0  0
  8  9  1  0  0  0  0
  8 29  1  0  0  0  0
  9 10  2  0  0  0  0
  9 30  1  0  0  0  0
 10 11  1  0  0  0  0
 10 31  1  0  0  0  0
 11 12  1  0  0  0  0
 11 18  2  0  0  0  0
 12 13  2  0  0  0  0
 12 17  1  0  0  0  0
 13 14  1  0  0  0  0
 13 32  1  0  0  0  0
 14 15  2  0  0  0  0
 14 33  1  0  0  0  0
 15 16  1  0  0  0  0
 15 34  1  0  0  0  0
 16 17  2  0  0  0  0
 17 35  1  0  0  0  0
 18 36  1  0  0  0  0
 19 20  1  0  0  0  0
 19 21  1  0  0  0  0
 19 37  1  0  0  0  0
 20 21  1  0  0  0  0
 20 38  1  0  0  0  0
 20 39  1  0  0  0  0
 21 40  1  0  0  0  0
 21 41  1  0  0  0  0
 22 23  2  0  0  0  0
M  CHG  1   5   1
M  END
$$$$
