CAT-4d
                    3D
 Schrodinger Suite 2022-3.
 53 56  0  0  1  0  0  0  0  0999 V2000
   15.5240    4.8480    2.3290 C   0  0  0  0  0  0  0  0  0  0  0  0
   14.9090    4.7640    0.9450 C   0  0  0  0  0  0  0  0  0  0  0  0
   15.2720    3.4140    0.4850 O   0  0  0  0  0  0  0  0  0  0  0  0
   14.7970    2.9980   -0.7300 C   0  0  0  0  0  0  0  0  0  0  0  0
   14.0440    3.7760   -1.6230 C   0  0  0  0  0  0  0  0  0  0  0  0
   13.6240    3.1960   -2.8230 C   0  0  0  0  0  0  0  0  0  0  0  0
   13.9320    1.8680   -3.1260 C   0  0  0  0  0  0  0  0  0  0  0  0
   14.6830    1.0960   -2.2210 C   0  0  0  0  0  0  0  0  0  0  0  0
   14.9580   -0.3300   -2.5180 C   0  0  0  0  0  0  0  0  0  0  0  0
   15.3690   -0.7400   -3.8000 C   0  0  0  0  0  0  0  0  0  0  0  0
   15.5610   -2.0940   -4.0720 C   0  0  0  0  0  0  0  0  0  0  0  0
   15.3620   -3.0630   -3.0810 C   0  0  0  0  0  0  0  0  0  0  0  0
   14.9660   -2.6600   -1.8020 C   0  0  0  0  0  0  0  0  0  0  0  0
   14.6490   -3.6790   -0.7220 C   0  0  1  0  0  0  0  0  0  0  0  0
   15.1320   -5.0950   -0.9560 C   0  0  0  0  0  0  0  0  0  0  0  0
   14.2450   -6.1480   -1.2170 C   0  0  0  0  0  0  0  0  0  0  0  0
   14.7300   -7.4540   -1.3440 C   0  0  0  0  0  0  0  0  0  0  0  0
   16.0960   -7.7150   -1.2090 C   0  0  0  0  0  0  0  0  0  0  0  0
   16.9870   -6.6590   -0.9900 C   0  0  0  0  0  0  0  0  0  0  0  0
   16.5100   -5.3530   -0.8640 C   0  0  0  0  0  0  0  0  0  0  0  0
   15.1800   -3.1940    0.6110 N   0  3  0  0  0  0  0  0  0  0  0  0
   14.1640   -2.9990    1.5280 C   0  0  0  0  0  0  0  0  0  0  0  0
   14.3640   -2.7230    2.8450 N   0  0  0  0  0  0  0  0  0  0  0  0
   12.9230   -3.2090    0.9130 N   0  0  0  0  0  0  0  0  0  0  0  0
   11.6570   -2.9000    1.6060 C   0  0  0  0  0  0  0  0  0  0  0  0
   13.0970   -3.5980   -0.4910 C   0  0  0  0  0  0  0  0  0  0  0  0
   12.1740   -3.7560   -1.2250 O   0  0  0  0  0  0  0  0  0  0  0  0
   14.7670   -1.2960   -1.5230 C   0  0  0  0  0  0  0  0  0  0  0  0
   15.1320    1.6610   -1.0250 C   0  0  0  0  0  0  0  0  0  0  0  0
   15.6510    5.9130    2.6310 H   0  0  0  0  0  0  0  0  0  0  0  0
   14.8970    4.3270    3.0880 H   0  0  0  0  0  0  0  0  0  0  0  0
   16.5200    4.3380    2.3340 H   0  0  0  0  0  0  0  0  0  0  0  0
   13.8030    4.8220    0.9700 H   0  0  0  0  0  0  0  0  0  0  0  0
   15.3600    5.4920    0.2350 H   0  0  0  0  0  0  0  0  0  0  0  0
   13.7760    4.8130   -1.4150 H   0  0  0  0  0  0  0  0  0  0  0  0
   13.0380    3.7910   -3.5340 H   0  0  0  0  0  0  0  0  0  0  0  0
   13.5790    1.4320   -4.0640 H   0  0  0  0  0  0  0  0  0  0  0  0
   15.5410    0.0020   -4.5890 H   0  0  0  0  0  0  0  0  0  0  0  0
   15.8610   -2.4030   -5.0750 H   0  0  0  0  0  0  0  0  0  0  0  0
   15.5110   -4.1200   -3.3140 H   0  0  0  0  0  0  0  0  0  0  0  0
   13.1720   -5.9730   -1.3270 H   0  0  0  0  0  0  0  0  0  0  0  0
   14.0300   -8.2750   -1.5400 H   0  0  0  0  0  0  0  0  0  0  0  0
   16.4650   -8.7440   -1.2590 H   0  0  0  0  0  0  0  0  0  0  0  0
   18.0570   -6.8550   -0.8820 H   0  0  0  0  0  0  0  0  0  0  0  0
   17.2080   -4.5340   -0.6740 H   0  0  0  0  0  0  0  0  0  0  0  0
   16.1770   -3.3100    0.9260 H   0  0  0  0  0  0  0  0  0  0  0  0
   13.6480   -2.2170    3.4210 H   0  0  0  0  0  0  0  0  0  0  0  0
   10.7890   -3.2280    0.9740 H   0  0  0  0  0  0  0  0  0  0  0  0
   11.6180   -3.4420    2.5910 H   0  0  0  0  0  0  0  0  0  0  0  0
   11.6000   -1.7950    1.7920 H   0  0  0  0  0  0  0  0  0  0  0  0
   14.4610   -0.9890   -0.5210 H   0  0  0  0  0  0  0  0  0  0  0  0
   15.7200    1.0830   -0.3130 H   0  0  0  0  0  0  0  0  0  0  0  0
   15.3470   -2.5520    3.1890 H   0  0  0  0  0  0  0  0  0  0  0  0
  1  2  1  0  0  0  0
  1 30  1  0  0  0  0
  1 31  1  0  0  0  0
  1 32  1  0  0  0  0
  2  3  1  0  0  0  0
  2 33  1  0  0  0  0
  2 34  1  0  0  0  0
  3  4  1  0  0  0  0
  4  5  2  0  0  0  0
  4 29  1  0  0  0  0
  5  6  1  0  0  0  0
  5 35  1  0  0  0  0
  6  7  2  0  0  0  0
  6 36  1  0  0  0  0
  7  8  1  0  0  0  0
  7 37  1  0  0  0  0
  8  9  1  0  0  0  0
  8 29  2  0  0  0  0
  9 10  2  0  0  0  0
  9 28  1  0  0  0  0
 10 11  1  0  0  0  0
 10 38  1  0  0  0  0
 11 12  2  0  0  0  0
 11 39  1  0  0  0  0
 12 13  1  0  0  0  0
 12 40  1  0  0  0  0
 13 14  1  0  0  0  0
 13 28  2  0  0  0  0
 14 15  1  0  0  0  0
 14 21  1  0  0  0  0
 14 26  1  0  0  0  0
 15 16  2  0  0  0  0
 15 20  1  0  0  0  0
 16 17  1  0  0  0  0
 16 41  1  0  0  0  0
 17 18  2  0  0  0  0
 17 42  1  0  0  0  0
 18 19  1  0  0  0  0
 18 43  1  0  0  0  0
 19 20  2  0  0  0  0
 19 44  1  0  0  0  0
 20 45  1  0  0  0  0
 21 22  2  0  0  0  0
 21 46  1  0  0  0  0
 22 23  1  0  0  0  0
 22 24  1  0  0  0  0
 23 47  1  0  0  0  0
 23 53  1  0  0  0  0
 24 25  1  0  0  0  0
 24 26  1  0  0  0  0
 25 48  1  0  0  0  0
 25 49  1  0  0  0  0
 25 50  1  0  0  0  0
 26 27  2  0  0  0  0
 28 51  1  0  0  0  0
 29 52  1  0  0  0  0
M  CHG  1  21   1
M  END
$$$$
