23486
                    3D
 Schrodinger Suite 2022-3.
 60 63  0  0  1  0  0  0  0  0999 V2000
   43.6660   13.7740   16.3690 S   0  0  0  0  0  0  0  0  0  0  0  0
   43.4520   15.2230   15.3970 C   0  0  0  0  0  0  0  0  0  0  0  0
   42.4600   14.9890   14.4860 C   0  0  0  0  0  0  0  0  0  0  0  0
   41.9080   13.6500   14.5510 C   0  0  0  0  0  0  0  0  0  0  0  0
   42.4150   12.8600   15.5490 C   0  0  0  0  0  0  0  0  0  0  0  0
   44.2880   16.4780   15.6680 C   0  0  0  0  0  0  0  0  0  0  0  0
   45.0530   16.4080   16.6550 O   0  0  0  0  0  0  0  0  0  0  0  0
   44.1730   17.4520   14.9200 O   0  5  0  0  0  0  0  0  0  0  0  0
   42.0230   11.5170   15.9220 C   0  0  0  0  0  0  0  0  0  0  0  0
   40.7230   11.0910   15.6190 C   0  0  0  0  0  0  0  0  0  0  0  0
   40.3100    9.7530   15.8140 C   0  0  0  0  0  0  0  0  0  0  0  0
   41.1830    8.8500   16.4310 C   0  0  0  0  0  0  0  0  0  0  0  0
   42.4520    9.3050   16.8270 C   0  0  0  0  0  0  0  0  0  0  0  0
   42.8890   10.5990   16.5610 C   0  0  0  0  0  0  0  0  0  0  0  0
   40.7590   13.1720   13.3780 Cl  0  0  0  0  0  0  0  0  0  0  0  0
   42.0750   15.8670   13.5200 O   0  0  0  0  0  0  0  0  0  0  0  0
   40.7140   16.3740   13.7050 C   0  0  0  0  0  0  0  0  0  0  0  0
   40.7630   17.6840   12.8590 C   0  0  0  0  0  0  0  0  0  0  0  0
   39.6410   18.1080   12.4970 O   0  5  0  0  0  0  0  0  0  0  0  0
   41.8680   18.1810   12.6220 O   0  0  0  0  0  0  0  0  0  0  0  0
   38.9520    9.4650   15.4490 N   0  0  0  0  0  0  0  0  0  0  0  0
   38.5240    8.0970   15.0480 C   0  0  0  0  0  0  0  0  0  0  0  0
   36.9800    8.1480   14.8960 C   0  0  0  0  0  0  0  0  0  0  0  0
   36.4170    6.8200   14.3610 C   0  0  0  0  0  0  0  0  0  0  0  0
   37.0630    6.4700   13.0570 N   0  0  1  0  0  0  0  0  0  0  0  0
   38.5420    6.3110   13.2270 C   0  0  0  0  0  0  0  0  0  0  0  0
   39.1470    7.6420   13.7020 C   0  0  0  0  0  0  0  0  0  0  0  0
   36.2440    5.3080   12.1110 S   0  0  0  0  0  0  0  0  0  0  0  0
   37.1180    4.9060   11.0140 O   0  0  0  0  0  0  0  0  0  0  0  0
   35.0250    5.9530   11.6060 O   0  0  0  0  0  0  0  0  0  0  0  0
   35.8930    3.9360   13.1610 C   0  0  0  0  0  0  0  0  0  0  0  0
   35.5310    2.7150   12.3810 C   0  0  0  0  0  0  0  0  0  0  0  0
   36.5200    1.9990   11.6830 C   0  0  0  0  0  0  0  0  0  0  0  0
   36.1740    0.8710   10.9360 C   0  0  0  0  0  0  0  0  0  0  0  0
   34.8470    0.4290   10.9010 C   0  0  0  0  0  0  0  0  0  0  0  0
   33.8690    1.1170   11.6230 C   0  0  0  0  0  0  0  0  0  0  0  0
   34.2040    2.2600   12.3550 C   0  0  0  0  0  0  0  0  0  0  0  0
   39.9850   11.7960   15.2440 H   0  0  0  0  0  0  0  0  0  0  0  0
   40.9000    7.8160   16.6080 H   0  0  0  0  0  0  0  0  0  0  0  0
   43.1110    8.6020   17.3420 H   0  0  0  0  0  0  0  0  0  0  0  0
   43.9020   10.8850   16.8490 H   0  0  0  0  0  0  0  0  0  0  0  0
   40.5000   16.5770   14.7730 H   0  0  0  0  0  0  0  0  0  0  0  0
   39.9950   15.6410   13.2900 H   0  0  0  0  0  0  0  0  0  0  0  0
   38.5910   10.1470   14.7400 H   0  0  0  0  0  0  0  0  0  0  0  0
   38.7940    7.3630   15.8490 H   0  0  0  0  0  0  0  0  0  0  0  0
   36.6970    8.9690   14.1950 H   0  0  0  0  0  0  0  0  0  0  0  0
   36.5190    8.3370   15.8950 H   0  0  0  0  0  0  0  0  0  0  0  0
   35.3140    6.9360   14.2090 H   0  0  0  0  0  0  0  0  0  0  0  0
   36.5990    6.0150   15.1290 H   0  0  0  0  0  0  0  0  0  0  0  0
   38.9990    6.0280   12.2440 H   0  0  0  0  0  0  0  0  0  0  0  0
   38.7720    5.5100   13.9850 H   0  0  0  0  0  0  0  0  0  0  0  0
   40.2450    7.5000   13.8320 H   0  0  0  0  0  0  0  0  0  0  0  0
   38.9470    8.4240   12.9390 H   0  0  0  0  0  0  0  0  0  0  0  0
   35.0800    4.1890   13.9010 H   0  0  0  0  0  0  0  0  0  0  0  0
   36.7850    3.7020   13.8180 H   0  0  0  0  0  0  0  0  0  0  0  0
   37.5680    2.3170   11.7240 H   0  0  0  0  0  0  0  0  0  0  0  0
   36.9400    0.3250   10.3790 H   0  0  0  0  0  0  0  0  0  0  0  0
   34.5720   -0.4490   10.3120 H   0  0  0  0  0  0  0  0  0  0  0  0
   32.8340    0.7650   11.6110 H   0  0  0  0  0  0  0  0  0  0  0  0
   33.4210    2.7840   12.9100 H   0  0  0  0  0  0  0  0  0  0  0  0
  1  2  1  0  0  0  0
  1  5  1  0  0  0  0
  2  3  2  0  0  0  0
  2  6  1  0  0  0  0
  3  4  1  0  0  0  0
  3 16  1  0  0  0  0
  4  5  2  0  0  0  0
  4 15  1  0  0  0  0
  5  9  1  0  0  0  0
  6  7  2  0  0  0  0
  6  8  1  0  0  0  0
  9 10  1  0  0  0  0
  9 14  2  0  0  0  0
 10 11  2  0  0  0  0
 10 38  1  0  0  0  0
 11 12  1  0  0  0  0
 11 21  1  0  0  0  0
 12 13  2  0  0  0  0
 12 39  1  0  0  0  0
 13 14  1  0  0  0  0
 13 40  1  0  0  0  0
 14 41  1  0  0  0  0
 16 17  1  0  0  0  0
 17 18  1  0  0  0  0
 17 42  1  0  0  0  0
 17 43  1  0  0  0  0
 18 19  1  0  0  0  0
 18 20  2  0  0  0  0
 21 22  1  0  0  0  0
 21 44  1  0  0  0  0
 22 23  1  0  0  0  0
 22 27  1  0  0  0  0
 22 45  1  0  0  0  0
 23 24  1  0  0  0  0
 23 46  1  0  0  0  0
 23 47  1  0  0  0  0
 24 25  1  0  0  0  0
 24 48  1  0  0  0  0
 24 49  1  0  0  0  0
 25 26  1  0  0  0  0
 25 28  1  0  0  0  0
 26 27  1  0  0  0  0
 26 50  1  0  0  0  0
 26 51  1  0  0  0  0
 27 52  1  0  0  0  0
 27 53  1  0  0  0  0
 28 29  2  0  0  0  0
 28 30  2  0  0  0  0
 28 31  1  0  0  0  0
 31 32  1  0  0  0  0
 31 54  1  0  0  0  0
 31 55  1  0  0  0  0
 32 33  2  0  0  0  0
 32 37  1  0  0  0  0
 33 34  1  0  0  0  0
 33 56  1  0  0  0  0
 34 35  2  0  0  0  0
 34 57  1  0  0  0  0
 35 36  1  0  0  0  0
 35 58  1  0  0  0  0
 36 37  2  0  0  0  0
 36 59  1  0  0  0  0
 37 60  1  0  0  0  0
M  CHG  2   8  -1  19  -1
M  END
$$$$
