18635-1
                    3D
 Schrodinger Suite 2022-3.
 44 45  0  0  1  0  0  0  0  0999 V2000
   25.8570    4.2630   30.9950 C   0  0  0  0  0  0  0  0  0  0  0  0
   24.6750    4.5960   30.3020 C   0  0  0  0  0  0  0  0  0  0  0  0
   23.4850    3.9260   30.6410 C   0  0  0  0  0  0  0  0  0  0  0  0
   23.5150    2.9090   31.6130 C   0  0  0  0  0  0  0  0  0  0  0  0
   24.6910    2.5880   32.2990 C   0  0  0  0  0  0  0  0  0  0  0  0
   25.8710    3.2870   31.9840 C   0  0  0  0  0  0  0  0  0  0  0  0
   22.1460    4.2420   30.0260 C   0  0  0  0  0  0  0  0  0  0  0  0
   21.3290    5.1990   30.8830 C   0  0  0  0  0  0  0  0  0  0  0  0
   21.9040    6.4900   30.9850 N   0  0  0  0  0  0  0  0  0  0  0  0
   21.3150    7.6500   31.5400 C   0  0  0  0  0  0  0  0  0  0  0  0
   20.2640    4.9210   31.3900 O   0  0  0  0  0  0  0  0  0  0  0  0
   22.0520    8.7820   31.2250 N   0  0  0  0  0  0  0  0  0  0  0  0
   21.5780    9.9770   31.6420 C   0  0  0  0  0  0  0  0  0  0  0  0
   20.3890   10.1480   32.4140 C   0  0  0  0  0  0  0  0  0  0  0  0
   19.6660    8.9580   32.7470 C   0  0  0  0  0  0  0  0  0  0  0  0
   20.1460    7.6990   32.2920 C   0  0  0  0  0  0  0  0  0  0  0  0
   18.5090    9.0170   33.4820 N   0  0  0  0  0  0  0  0  0  0  0  0
   19.9880   11.4520   32.7700 C   0  0  0  0  0  0  0  0  0  0  0  0
   22.2300   11.1120   31.3060 O   0  0  0  0  0  0  0  0  0  0  0  0
   23.5030   11.0270   30.5600 C   0  0  0  0  0  0  0  0  0  0  0  0
   23.2420   10.8080   29.0850 C   0  0  0  0  0  0  0  0  0  0  0  0
   19.7100   12.5510   33.0220 N   0  0  0  0  0  0  0  0  0  0  0  0
   26.7870    4.7870   30.7490 H   0  0  0  0  0  0  0  0  0  0  0  0
   22.6060    2.3470   31.8320 H   0  0  0  0  0  0  0  0  0  0  0  0
   19.5860    6.7920   32.5260 H   0  0  0  0  0  0  0  0  0  0  0  0
   21.5620    3.2890   29.9120 H   0  0  0  0  0  0  0  0  0  0  0  0
   22.2590    4.6870   29.0080 H   0  0  0  0  0  0  0  0  0  0  0  0
   22.8360    6.6490   30.5560 H   0  0  0  0  0  0  0  0  0  0  0  0
   18.0090    8.1540   33.7670 H   0  0  0  0  0  0  0  0  0  0  0  0
   18.1230    9.9080   33.7920 H   0  0  0  0  0  0  0  0  0  0  0  0
   24.1430   10.2290   31.0000 H   0  0  0  0  0  0  0  0  0  0  0  0
   23.9000   12.0500   30.7710 H   0  0  0  0  0  0  0  0  0  0  0  0
   24.1960   10.9470   28.5170 H   0  0  0  0  0  0  0  0  0  0  0  0
   22.8720    9.7740   28.8870 H   0  0  0  0  0  0  0  0  0  0  0  0
   22.4980   11.5360   28.6910 H   0  0  0  0  0  0  0  0  0  0  0  0
   24.7090    1.5310   33.3540 C   0  0  0  0  0  0  0  0  0  0  0  0
   25.5360    0.8010   33.1650 H   0  0  0  0  0  0  0  0  0  0  0  0
   24.8820    1.9940   34.3580 H   0  0  0  0  0  0  0  0  0  0  0  0
   23.7510    0.9590   33.3950 H   0  0  0  0  0  0  0  0  0  0  0  0
   24.7960    5.6460   29.2420 C   0  0  0  0  0  0  0  0  0  0  0  0
   25.1000    6.6220   29.7070 H   0  0  0  0  0  0  0  0  0  0  0  0
   25.6110    5.3600   28.5260 H   0  0  0  0  0  0  0  0  0  0  0  0
   23.8720    5.8110   28.6550 H   0  0  0  0  0  0  0  0  0  0  0  0
   26.8010    3.0590   32.5120 H   0  0  0  0  0  0  0  0  0  0  0  0
  1  2  1  0  0  0  0
  1  6  2  0  0  0  0
  1 23  1  0  0  0  0
  2  3  2  0  0  0  0
  2 40  1  0  0  0  0
  3  4  1  0  0  0  0
  3  7  1  0  0  0  0
  4  5  2  0  0  0  0
  4 24  1  0  0  0  0
  5  6  1  0  0  0  0
  5 36  1  0  0  0  0
  6 44  1  0  0  0  0
  7  8  1  0  0  0  0
  7 26  1  0  0  0  0
  7 27  1  0  0  0  0
  8  9  1  0  0  0  0
  8 11  2  0  0  0  0
  9 10  1  0  0  0  0
  9 28  1  0  0  0  0
 10 12  1  0  0  0  0
 10 16  2  0  0  0  0
 12 13  2  0  0  0  0
 13 14  1  0  0  0  0
 13 19  1  0  0  0  0
 14 15  2  0  0  0  0
 14 18  1  0  0  0  0
 15 16  1  0  0  0  0
 15 17  1  0  0  0  0
 16 25  1  0  0  0  0
 17 29  1  0  0  0  0
 17 30  1  0  0  0  0
 18 22  3  0  0  0  0
 19 20  1  0  0  0  0
 20 21  1  0  0  0  0
 20 31  1  0  0  0  0
 20 32  1  0  0  0  0
 21 33  1  0  0  0  0
 21 34  1  0  0  0  0
 21 35  1  0  0  0  0
 36 37  1  0  0  0  0
 36 38  1  0  0  0  0
 36 39  1  0  0  0  0
 40 41  1  0  0  0  0
 40 42  1  0  0  0  0
 40 43  1  0  0  0  0
M  END
$$$$
