50
 OpenBabel04222415263D
Structure written by MMmdl.
 44 46  0  0  0  0  0  0  0  0999 V2000
    4.0690  -50.3450    6.1910 O   0  0  0  0  0  0  0  0  0  0  0  0
    3.3380  -49.4810    6.7120 C   0  0  0  0  0  0  0  0  0  0  0  0
    3.6960  -48.4660    7.3210 O   0  5  0  0  0  0  0  0  0  0  0  0
    1.8240  -49.7280    6.5740 C   0  0  0  0  0  0  0  0  0  0  0  0
   -0.1030  -50.9440    6.7260 C   0  0  0  0  0  0  0  0  0  0  0  0
   -1.0890  -51.9170    6.9830 C   0  0  0  0  0  0  0  0  0  0  0  0
   -2.3940  -51.6280    6.6250 C   0  0  0  0  0  0  0  0  0  0  0  0
   -2.7330  -50.4010    6.0030 C   0  0  0  0  0  0  0  0  0  0  0  0
   -1.7500  -49.4590    5.7560 C   0  0  0  0  0  0  0  0  0  0  0  0
   -0.4110  -49.6680    6.1210 C   0  0  0  0  0  0  0  0  0  0  0  0
    0.8190  -48.9120    6.0610 C   0  0  0  0  0  0  0  0  0  0  0  0
    0.9700  -47.5140    5.5720 C   0  0  0  0  0  0  0  0  0  0  0  0
    0.7980  -46.4600    6.6810 C   0  0  0  0  0  0  0  0  0  0  0  0
   -0.5530  -46.4560    7.3940 C   0  0  0  0  0  0  0  0  0  0  0  0
   -1.4740  -45.7680    6.4680 O   0  0  0  0  0  0  0  0  0  0  0  0
   -2.7580  -45.5620    6.8640 C   0  0  0  0  0  0  0  0  0  0  0  0
   -3.3080  -45.9660    8.0930 C   0  0  0  0  0  0  0  0  0  0  0  0
   -4.6410  -45.6460    8.3850 C   0  0  0  0  0  0  0  0  0  0  0  0
   -5.2550  -46.0610    9.6820 C   0  0  0  0  0  0  0  0  0  0  0  0
   -5.3920  -44.9340    7.4390 C   0  0  0  0  0  0  0  0  0  0  0  0
   -7.0410  -44.5550    7.7940 Cl  0  0  0  0  0  0  0  0  0  0  0  0
   -4.8610  -44.5410    6.1940 C   0  0  0  0  0  0  0  0  0  0  0  0
   -5.7130  -43.8530    5.1790 C   0  0  0  0  0  0  0  0  0  0  0  0
   -3.5360  -44.8640    5.9130 C   0  0  0  0  0  0  0  0  0  0  0  0
   -0.8370  -52.8680    7.4550 H   0  0  0  0  0  0  0  0  0  0  0  0
   -3.1880  -52.3520    6.8190 H   0  0  0  0  0  0  0  0  0  0  0  0
   -3.7730  -50.2190    5.7270 H   0  0  0  0  0  0  0  0  0  0  0  0
   -2.1800  -47.9920    4.9530 Cl  0  0  0  0  0  0  0  0  0  0  0  0
    0.2290  -47.2980    4.7660 H   0  0  0  0  0  0  0  0  0  0  0  0
    1.9920  -47.3750    5.1330 H   0  0  0  0  0  0  0  0  0  0  0  0
    1.5780  -46.6380    7.4610 H   0  0  0  0  0  0  0  0  0  0  0  0
    0.9380  -45.4480    6.2290 H   0  0  0  0  0  0  0  0  0  0  0  0
   -0.5210  -45.8320    8.3140 H   0  0  0  0  0  0  0  0  0  0  0  0
   -0.9590  -47.4730    7.5710 H   0  0  0  0  0  0  0  0  0  0  0  0
   -2.7360  -46.5340    8.8200 H   0  0  0  0  0  0  0  0  0  0  0  0
   -5.1110  -43.5470    4.2900 H   0  0  0  0  0  0  0  0  0  0  0  0
   -6.0480  -46.8270    9.4970 H   0  0  0  0  0  0  0  0  0  0  0  0
   -4.4990  -46.5070   10.3690 H   0  0  0  0  0  0  0  0  0  0  0  0
   -5.7360  -45.1920   10.1910 H   0  0  0  0  0  0  0  0  0  0  0  0
   -6.5230  -44.5460    4.8410 H   0  0  0  0  0  0  0  0  0  0  0  0
   -6.1950  -42.9440    5.6080 H   0  0  0  0  0  0  0  0  0  0  0  0
   -3.1050  -44.5860    4.9580 H   0  0  0  0  0  0  0  0  0  0  0  0
    1.2720  -50.9570    6.9820 N   0  0  0  0  0  0  0  0  0  0  0  0
    1.7530  -51.7470    7.3970 H   0  0  0  0  0  0  0  0  0  0  0  0
  1  2  2  0  0  0  0
  2  3  1  0  0  0  0
  2  4  1  0  0  0  0
  4 11  2  0  0  0  0
  4 43  1  0  0  0  0
  5  6  2  0  0  0  0
  5 10  1  0  0  0  0
  5 43  1  0  0  0  0
  6  7  1  0  0  0  0
  6 25  1  0  0  0  0
  7  8  2  0  0  0  0
  7 26  1  0  0  0  0
  8  9  1  0  0  0  0
  8 27  1  0  0  0  0
  9 10  2  0  0  0  0
  9 28  1  0  0  0  0
 10 11  1  0  0  0  0
 11 12  1  0  0  0  0
 12 29  1  0  0  0  0
 12 30  1  0  0  0  0
 12 13  1  0  0  0  0
 13 14  1  0  0  0  0
 13 31  1  0  0  0  0
 13 32  1  0  0  0  0
 14 15  1  0  0  0  0
 14 33  1  0  0  0  0
 14 34  1  0  0  0  0
 15 16  1  0  0  0  0
 16 17  2  0  0  0  0
 16 24  1  0  0  0  0
 17 18  1  0  0  0  0
 17 35  1  0  0  0  0
 18 19  1  0  0  0  0
 18 20  2  0  0  0  0
 19 36  1  0  0  0  0
 19 37  1  0  0  0  0
 19 38  1  0  0  0  0
 20 21  1  0  0  0  0
 20 22  1  0  0  0  0
 22 23  1  0  0  0  0
 22 24  2  0  0  0  0
 23 39  1  0  0  0  0
 23 40  1  0  0  0  0
 23 41  1  0  0  0  0
 24 42  1  0  0  0  0
 43 44  1  0  0  0  0
M  CHG  1   3  -1
M  END
$$$$
