p38a_2bb
 OpenBabel02232411163D
Structure written by MMmdl.
 44 46  0  0  0  0  0  0  0  0999 V2000
   38.2250   36.4920   17.2360 C   0  0  0  0  0  0  0  0  0  0  0  0
   34.6310   35.1680   21.4120 C   0  0  0  0  0  0  0  0  0  0  0  0
   37.4360   36.0720   18.3030 C   0  0  0  0  0  0  0  0  0  0  0  0
   34.3350   39.2700   23.9530 C   0  0  0  0  0  0  0  0  0  0  0  0
   33.9470   39.1930   26.4390 C   0  0  0  0  0  0  0  0  0  0  0  0
   34.7400   38.0400   21.5200 C   0  0  0  0  0  0  0  0  0  0  0  0
   35.0400   37.3710   20.2820 C   0  0  0  0  0  0  0  0  0  0  0  0
   37.5780   36.6290   15.9990 C   0  0  0  0  0  0  0  0  0  0  0  0
   36.2260   36.3410   15.8020 C   0  0  0  0  0  0  0  0  0  0  0  0
   35.4560   35.9150   16.8910 C   0  0  0  0  0  0  0  0  0  0  0  0
   34.5120   37.2830   22.7080 C   0  0  0  0  0  0  0  0  0  0  0  0
   34.6660   39.4520   21.6370 C   0  0  0  0  0  0  0  0  0  0  0  0
   35.0280   36.0190   20.2570 C   0  0  0  0  0  0  0  0  0  0  0  0
   36.0660   35.7740   18.1410 C   0  0  0  0  0  0  0  0  0  0  0  0
   34.2240   35.1130   23.9040 C   0  0  0  0  0  0  0  0  0  0  0  0
   37.9750   35.9460   19.5090 F   0  0  0  0  0  0  0  0  0  0  0  0
   35.3280   35.1890   19.1790 O   0  0  0  0  0  0  0  0  0  0  0  0
   34.4620   40.0760   22.8080 N   0  0  0  0  0  0  0  0  0  0  0  0
   34.4430   33.9720   21.3760 O   0  0  0  0  0  0  0  0  0  0  0  0
   34.4690   35.8820   22.6520 N   0  0  0  0  0  0  0  0  0  0  0  0
   34.3110   37.8900   23.9250 N   0  0  0  0  0  0  0  0  0  0  0  0
   34.2830   39.9190   25.1710 N   0  0  0  0  0  0  0  0  0  0  0  0
   39.2830   36.7390   17.3610 H   0  0  0  0  0  0  0  0  0  0  0  0
   34.5000   38.2130   26.4470 H   0  0  0  0  0  0  0  0  0  0  0  0
   35.2810   37.9820   19.4090 H   0  0  0  0  0  0  0  0  0  0  0  0
   35.7590   36.4590   14.8220 H   0  0  0  0  0  0  0  0  0  0  0  0
   34.3890   35.7120   16.7570 H   0  0  0  0  0  0  0  0  0  0  0  0
   34.7650   40.0870   20.7400 H   0  0  0  0  0  0  0  0  0  0  0  0
   34.9670   35.4180   24.6910 H   0  0  0  0  0  0  0  0  0  0  0  0
   33.1900   35.3270   24.2900 H   0  0  0  0  0  0  0  0  0  0  0  0
   34.3260   34.0130   23.7100 H   0  0  0  0  0  0  0  0  0  0  0  0
   34.0790   40.9380   25.1920 H   0  0  0  0  0  0  0  0  0  0  0  0
   38.2830   37.0960   14.9710 F   0  0  0  0  0  0  0  0  0  0  0  0
   34.3810   40.0660   27.6200 C   0  0  0  0  0  0  0  0  0  0  0  0
   32.8370   39.0130   26.4720 H   0  0  0  0  0  0  0  0  0  0  0  0
   35.4800   40.2950   27.5270 H   0  0  0  0  0  0  0  0  0  0  0  0
   33.8730   41.0720   27.5430 H   0  0  0  0  0  0  0  0  0  0  0  0
   34.2200   40.7570   30.2700 C   0  0  0  0  0  0  0  0  0  0  0  0
   34.0530   39.3850   29.2160 S   0  0  0  0  0  0  0  0  0  0  0  0
   32.6820   38.8310   29.3000 O   0  0  0  0  0  0  0  0  0  0  0  0
   35.0520   38.3490   29.5710 O   0  0  0  0  0  0  0  0  0  0  0  0
   35.2060   41.2730   30.1270 H   0  0  0  0  0  0  0  0  0  0  0  0
   33.4370   41.5390   30.0770 H   0  0  0  0  0  0  0  0  0  0  0  0
   34.1460   40.4890   31.3530 H   0  0  0  0  0  0  0  0  0  0  0  0
  1  3  2  0  0  0  0
  1  8  1  0  0  0  0
  1 23  1  0  0  0  0
  2 13  1  0  0  0  0
  2 19  2  0  0  0  0
  2 20  1  0  0  0  0
  3 14  1  0  0  0  0
  3 16  1  0  0  0  0
  4 18  2  0  0  0  0
  4 21  1  0  0  0  0
  4 22  1  0  0  0  0
  5 22  1  0  0  0  0
  5 24  1  0  0  0  0
  5 34  1  0  0  0  0
  5 35  1  0  0  0  0
  6  7  1  0  0  0  0
  6 11  1  0  0  0  0
  6 12  2  0  0  0  0
  7 13  2  0  0  0  0
  7 25  1  0  0  0  0
  8  9  2  0  0  0  0
  8 33  1  0  0  0  0
  9 10  1  0  0  0  0
  9 26  1  0  0  0  0
 10 14  2  0  0  0  0
 10 27  1  0  0  0  0
 11 20  1  0  0  0  0
 11 21  2  0  0  0  0
 12 18  1  0  0  0  0
 12 28  1  0  0  0  0
 13 17  1  0  0  0  0
 14 17  1  0  0  0  0
 15 20  1  0  0  0  0
 15 29  1  0  0  0  0
 15 30  1  0  0  0  0
 15 31  1  0  0  0  0
 22 32  1  0  0  0  0
 34 36  1  0  0  0  0
 34 37  1  0  0  0  0
 34 39  1  0  0  0  0
 38 39  1  0  0  0  0
 38 42  1  0  0  0  0
 38 43  1  0  0  0  0
 38 44  1  0  0  0  0
 39 40  2  0  0  0  0
 39 41  2  0  0  0  0
M  END
$$$$
