p38a_3flw
 OpenBabel02232411163D
Structure written by MMmdl.
 49 51  0  0  0  0  0  0  0  0999 V2000
   38.2860   36.5190   17.1780 C   0  0  0  0  0  0  0  0  0  0  0  0
   37.6330   36.6660   15.9470 C   0  0  0  0  0  0  0  0  0  0  0  0
   31.6380   38.5580   25.6580 C   0  0  0  0  0  0  0  0  0  0  0  0
   30.7910   39.0260   24.4690 C   0  0  0  0  0  0  0  0  0  0  0  0
   33.7170   38.8940   27.0720 C   0  0  0  0  0  0  0  0  0  0  0  0
   33.6340   35.0990   23.6200 C   0  0  0  0  0  0  0  0  0  0  0  0
   38.0470   35.9360   19.4450 F   0  0  0  0  0  0  0  0  0  0  0  0
   37.5110   36.0560   18.2380 C   0  0  0  0  0  0  0  0  0  0  0  0
   38.3220   37.1760   14.9280 F   0  0  0  0  0  0  0  0  0  0  0  0
   36.2890   36.3470   15.7450 C   0  0  0  0  0  0  0  0  0  0  0  0
   35.5350   35.8680   16.8220 C   0  0  0  0  0  0  0  0  0  0  0  0
   36.1530   35.7120   18.0660 C   0  0  0  0  0  0  0  0  0  0  0  0
   35.4410   35.0890   19.1010 O   0  0  0  0  0  0  0  0  0  0  0  0
   35.0480   35.9290   20.1440 C   0  0  0  0  0  0  0  0  0  0  0  0
   35.1010   37.2800   20.1660 C   0  0  0  0  0  0  0  0  0  0  0  0
   34.6890   37.9700   21.3550 C   0  0  0  0  0  0  0  0  0  0  0  0
   34.7200   39.3870   21.4700 C   0  0  0  0  0  0  0  0  0  0  0  0
   34.3700   40.0330   22.5870 N   0  0  0  0  0  0  0  0  0  0  0  0
   34.5170   35.0970   21.2550 C   0  0  0  0  0  0  0  0  0  0  0  0
   34.3770   33.8930   21.2300 O   0  0  0  0  0  0  0  0  0  0  0  0
   34.1530   35.8370   22.4350 N   0  0  0  0  0  0  0  0  0  0  0  0
   34.2370   37.2390   22.4920 C   0  0  0  0  0  0  0  0  0  0  0  0
   33.8690   37.8680   23.6570 N   0  0  0  0  0  0  0  0  0  0  0  0
   33.9340   39.2450   23.6790 C   0  0  0  0  0  0  0  0  0  0  0  0
   33.6260   39.9540   24.8140 N   0  0  0  0  0  0  0  0  0  0  0  0
   32.8090   39.5020   25.9840 C   0  0  0  0  0  0  0  0  0  0  0  0
   34.8920   39.7960   27.4770 C   0  0  0  0  0  0  0  0  0  0  0  0
   34.4910   41.1560   27.7350 O   0  0  0  0  0  0  0  0  0  0  0  0
   30.7520   40.4580   24.3950 O   0  0  0  0  0  0  0  0  0  0  0  0
   39.3370   36.7920   17.3090 H   0  0  0  0  0  0  0  0  0  0  0  0
   30.9970   38.4860   26.5720 H   0  0  0  0  0  0  0  0  0  0  0  0
   32.0190   37.5250   25.4420 H   0  0  0  0  0  0  0  0  0  0  0  0
   31.2730   38.7540   23.5020 H   0  0  0  0  0  0  0  0  0  0  0  0
   29.7590   38.6230   24.5370 H   0  0  0  0  0  0  0  0  0  0  0  0
   33.0810   38.6790   27.9670 H   0  0  0  0  0  0  0  0  0  0  0  0
   34.1300   37.9140   26.7170 H   0  0  0  0  0  0  0  0  0  0  0  0
   34.2040   35.3960   24.5430 H   0  0  0  0  0  0  0  0  0  0  0  0
   32.5510   35.3510   23.7820 H   0  0  0  0  0  0  0  0  0  0  0  0
   33.7370   33.9940   23.4670 H   0  0  0  0  0  0  0  0  0  0  0  0
   35.8140   36.4820   14.7710 H   0  0  0  0  0  0  0  0  0  0  0  0
   34.4740   35.6370   16.6850 H   0  0  0  0  0  0  0  0  0  0  0  0
   35.4530   37.8750   19.3200 H   0  0  0  0  0  0  0  0  0  0  0  0
   35.0310   39.9960   20.6050 H   0  0  0  0  0  0  0  0  0  0  0  0
   33.6530   40.9910   24.7540 H   0  0  0  0  0  0  0  0  0  0  0  0
   32.3570   40.4600   26.3840 H   0  0  0  0  0  0  0  0  0  0  0  0
   35.3140   39.4650   28.4550 H   0  0  0  0  0  0  0  0  0  0  0  0
   35.6660   39.8130   26.6780 H   0  0  0  0  0  0  0  0  0  0  0  0
   34.1590   41.5410   26.8680 H   0  0  0  0  0  0  0  0  0  0  0  0
   30.0010   40.8120   24.9540 H   0  0  0  0  0  0  0  0  0  0  0  0
  1  2  2  0  0  0  0
  1  8  1  0  0  0  0
  1 30  1  0  0  0  0
  2  9  1  0  0  0  0
  2 10  1  0  0  0  0
  3  4  1  0  0  0  0
  3 26  1  0  0  0  0
  3 31  1  0  0  0  0
  3 32  1  0  0  0  0
  4 29  1  0  0  0  0
  4 33  1  0  0  0  0
  4 34  1  0  0  0  0
  5 26  1  0  0  0  0
  5 27  1  0  0  0  0
  5 35  1  0  0  0  0
  5 36  1  0  0  0  0
  6 21  1  0  0  0  0
  6 37  1  0  0  0  0
  6 38  1  0  0  0  0
  6 39  1  0  0  0  0
  7  8  1  0  0  0  0
  8 12  2  0  0  0  0
 10 11  2  0  0  0  0
 10 40  1  0  0  0  0
 11 12  1  0  0  0  0
 11 41  1  0  0  0  0
 12 13  1  0  0  0  0
 13 14  1  0  0  0  0
 14 15  2  0  0  0  0
 14 19  1  0  0  0  0
 15 16  1  0  0  0  0
 15 42  1  0  0  0  0
 16 17  2  0  0  0  0
 16 22  1  0  0  0  0
 17 18  1  0  0  0  0
 17 43  1  0  0  0  0
 18 24  2  0  0  0  0
 19 20  2  0  0  0  0
 19 21  1  0  0  0  0
 21 22  1  0  0  0  0
 22 23  2  0  0  0  0
 23 24  1  0  0  0  0
 24 25  1  0  0  0  0
 25 26  1  0  0  0  0
 25 44  1  0  0  0  0
 26 45  1  0  0  0  0
 27 28  1  0  0  0  0
 27 46  1  0  0  0  0
 27 47  1  0  0  0  0
 28 48  1  0  0  0  0
 29 49  1  0  0  0  0
M  END
$$$$
