2gg
                    3D
 Schrodinger Suite 2022-3.
 48 51  0  0  1  0  0  0  0  0999 V2000
   27.7700    8.1830   30.8330 C   0  0  0  0  0  0  0  0  0  0  0  0
   28.9950    8.9700   31.2970 C   0  0  0  0  0  0  0  0  0  0  0  0
   27.9580    8.6340   33.8750 C   0  0  0  0  0  0  0  0  0  0  0  0
   26.8540    7.8380   33.1830 C   0  0  0  0  0  0  0  0  0  0  0  0
   16.0740   10.5750   31.7210 C   0  0  0  0  0  0  0  0  0  0  0  0
   21.5210   12.4690   31.2960 C   0  0  0  0  0  0  0  0  0  0  0  0
   17.3860   11.0300   31.8210 C   0  0  0  0  0  0  0  0  0  0  0  0
   24.1560    8.4210   31.0580 C   0  0  0  0  0  0  0  0  0  0  0  0
   26.5710    8.4330   31.7820 C   0  0  0  0  0  0  0  0  0  0  0  0
   21.7000    9.6420   30.7560 C   0  0  0  0  0  0  0  0  0  0  0  0
   20.4210   10.2950   30.6780 C   0  0  0  0  0  0  0  0  0  0  0  0
   15.3890   10.8840   30.5400 C   0  0  0  0  0  0  0  0  0  0  0  0
   15.9540   11.6210   29.4960 C   0  0  0  0  0  0  0  0  0  0  0  0
   17.2690   12.0800   29.6260 C   0  0  0  0  0  0  0  0  0  0  0  0
   22.8500   10.3730   31.1800 C   0  0  0  0  0  0  0  0  0  0  0  0
   21.8950    8.2700   30.4460 C   0  0  0  0  0  0  0  0  0  0  0  0
   20.3470   11.6150   30.9660 C   0  0  0  0  0  0  0  0  0  0  0  0
   17.9800   11.7950   30.7960 C   0  0  0  0  0  0  0  0  0  0  0  0
   23.9850   12.4820   31.8610 C   0  0  0  0  0  0  0  0  0  0  0  0
   18.1020   10.7420   32.9010 F   0  0  0  0  0  0  0  0  0  0  0  0
   14.1450   10.4300   30.4000 F   0  0  0  0  0  0  0  0  0  0  0  0
   19.2150   12.4250   30.9920 O   0  0  0  0  0  0  0  0  0  0  0  0
   23.0750    7.6470   30.5930 N   0  0  0  0  0  0  0  0  0  0  0  0
   21.5060   13.6700   31.4510 O   0  0  0  0  0  0  0  0  0  0  0  0
   22.7570   11.7470   31.4460 N   0  0  0  0  0  0  0  0  0  0  0  0
   24.0730    9.7700   31.3350 N   0  0  0  0  0  0  0  0  0  0  0  0
   25.3610    7.7800   31.2170 N   0  0  0  0  0  0  0  0  0  0  0  0
   15.3920   11.8320   28.5840 H   0  0  0  0  0  0  0  0  0  0  0  0
   17.7320   12.6540   28.8170 H   0  0  0  0  0  0  0  0  0  0  0  0
   15.6160    9.9770   32.5110 H   0  0  0  0  0  0  0  0  0  0  0  0
   19.5540    9.6980   30.3920 H   0  0  0  0  0  0  0  0  0  0  0  0
   21.0570    7.6650   30.0620 H   0  0  0  0  0  0  0  0  0  0  0  0
   27.9860    7.0890   30.7800 H   0  0  0  0  0  0  0  0  0  0  0  0
   27.4830    8.5290   29.8060 H   0  0  0  0  0  0  0  0  0  0  0  0
   28.7570   10.0690   31.2060 H   0  0  0  0  0  0  0  0  0  0  0  0
   29.8460    8.7910   30.5910 H   0  0  0  0  0  0  0  0  0  0  0  0
   28.1100    8.2190   34.9070 H   0  0  0  0  0  0  0  0  0  0  0  0
   27.6240    9.6990   34.0060 H   0  0  0  0  0  0  0  0  0  0  0  0
   25.9190    7.8840   33.7940 H   0  0  0  0  0  0  0  0  0  0  0  0
   27.1310    6.7570   33.0890 H   0  0  0  0  0  0  0  0  0  0  0  0
   26.3990    9.5420   31.8720 H   0  0  0  0  0  0  0  0  0  0  0  0
   24.4960   11.9340   32.6990 H   0  0  0  0  0  0  0  0  0  0  0  0
   24.7040   12.5440   31.0000 H   0  0  0  0  0  0  0  0  0  0  0  0
   23.7230   13.5160   32.2030 H   0  0  0  0  0  0  0  0  0  0  0  0
   25.4610    6.7750   30.9930 H   0  0  0  0  0  0  0  0  0  0  0  0
   29.4550    8.6030   32.9570 S   0  0  0  0  0  0  0  0  0  0  0  0
   30.1060    7.2760   33.0510 O   0  0  0  0  0  0  0  0  0  0  0  0
   30.3730    9.6560   33.4700 O   0  0  0  0  0  0  0  0  0  0  0  0
  1  2  1  0  0  0  0
  1  9  1  0  0  0  0
  1 33  1  0  0  0  0
  1 34  1  0  0  0  0
  2 35  1  0  0  0  0
  2 36  1  0  0  0  0
  2 46  1  0  0  0  0
  3  4  1  0  0  0  0
  3 37  1  0  0  0  0
  3 38  1  0  0  0  0
  3 46  1  0  0  0  0
  4  9  1  0  0  0  0
  4 39  1  0  0  0  0
  4 40  1  0  0  0  0
  5  7  1  0  0  0  0
  5 12  2  0  0  0  0
  5 30  1  0  0  0  0
  6 17  1  0  0  0  0
  6 24  2  0  0  0  0
  6 25  1  0  0  0  0
  7 18  2  0  0  0  0
  7 20  1  0  0  0  0
  8 23  1  0  0  0  0
  8 26  2  0  0  0  0
  8 27  1  0  0  0  0
  9 27  1  0  0  0  0
  9 41  1  0  0  0  0
 10 11  1  0  0  0  0
 10 15  2  0  0  0  0
 10 16  1  0  0  0  0
 11 17  2  0  0  0  0
 11 31  1  0  0  0  0
 12 13  1  0  0  0  0
 12 21  1  0  0  0  0
 13 14  2  0  0  0  0
 13 28  1  0  0  0  0
 14 18  1  0  0  0  0
 14 29  1  0  0  0  0
 15 25  1  0  0  0  0
 15 26  1  0  0  0  0
 16 23  2  0  0  0  0
 16 32  1  0  0  0  0
 17 22  1  0  0  0  0
 18 22  1  0  0  0  0
 19 25  1  0  0  0  0
 19 42  1  0  0  0  0
 19 43  1  0  0  0  0
 19 44  1  0  0  0  0
 27 45  1  0  0  0  0
 46 47  2  0  0  0  0
 46 48  2  0  0  0  0
M  END
$$$$
