CAT-17h
 OpenBabel02232411143D
Structure written by MMmdl.
 42 45  0  0  1  0  0  0  0  0999 V2000
   11.6470   -2.3030    1.2550 C   0  0  0  0  0  0  0  0  0  0  0  0
   12.9890   -2.4050    0.6470 N   0  0  0  0  0  0  0  0  0  0  0  0
   14.1740   -2.3810    1.3770 C   0  0  0  0  0  0  0  0  0  0  0  0
   14.3080   -2.4620    2.7320 N   0  0  0  0  0  0  0  0  0  0  0  0
   15.2700   -2.3390    0.5060 N   0  3  0  0  0  0  0  0  0  0  0  0
   14.8300   -2.6650   -0.9020 C   0  0  1  0  0  0  0  0  0  0  0  0
   15.4260   -1.6400   -1.8430 C   0  0  0  0  0  0  0  0  0  0  0  0
   16.2870   -2.0070   -2.8840 C   0  0  0  0  0  0  0  0  0  0  0  0
   16.7710   -1.0240   -3.7550 C   0  0  0  0  0  0  0  0  0  0  0  0
   16.4310    0.3190   -3.5760 C   0  0  0  0  0  0  0  0  0  0  0  0
   15.6140    0.7010   -2.4990 C   0  0  0  0  0  0  0  0  0  0  0  0
   15.2870    2.1130   -2.2220 C   0  0  0  0  0  0  0  0  0  0  0  0
   14.8800    3.0040   -3.2390 C   0  0  0  0  0  0  0  0  0  0  0  0
   14.4750    4.2730   -2.9760 N   0  0  0  0  0  0  0  0  0  0  0  0
   14.4510    4.7050   -1.6920 C   0  0  0  0  0  0  0  0  0  0  0  0
   14.8850    3.8800   -0.6340 C   0  0  0  0  0  0  0  0  0  0  0  0
   14.8150    4.4360    0.9820 Cl  0  0  0  0  0  0  0  0  0  0  0  0
   15.3260    2.5860   -0.8990 C   0  0  0  0  0  0  0  0  0  0  0  0
   15.0950   -0.2910   -1.6520 C   0  0  0  0  0  0  0  0  0  0  0  0
   15.0560   -4.1210   -1.2720 C   0  0  0  0  0  0  0  0  0  0  0  0
   16.2670   -4.8760   -0.7510 C   0  0  0  0  0  0  0  0  0  0  0  0
   14.8900   -5.2240   -0.2320 C   0  0  0  0  0  0  0  0  0  0  0  0
   13.2760   -2.4910   -0.8020 C   0  0  0  0  0  0  0  0  0  0  0  0
   12.4160   -2.4440   -1.6200 O   0  0  0  0  0  0  0  0  0  0  0  0
   10.9280   -2.9380    0.6690 H   0  0  0  0  0  0  0  0  0  0  0  0
   11.6650   -2.6760    2.3140 H   0  0  0  0  0  0  0  0  0  0  0  0
   11.3120   -1.2330    1.2380 H   0  0  0  0  0  0  0  0  0  0  0  0
   13.5840   -2.0620    3.3780 H   0  0  0  0  0  0  0  0  0  0  0  0
   16.2020   -2.6750    0.8730 H   0  0  0  0  0  0  0  0  0  0  0  0
   16.5830   -3.0490   -3.0160 H   0  0  0  0  0  0  0  0  0  0  0  0
   17.4300   -1.3120   -4.5800 H   0  0  0  0  0  0  0  0  0  0  0  0
   16.8090    1.0670   -4.2770 H   0  0  0  0  0  0  0  0  0  0  0  0
   14.8620    2.6850   -4.2950 H   0  0  0  0  0  0  0  0  0  0  0  0
   14.0620    5.7190   -1.5050 H   0  0  0  0  0  0  0  0  0  0  0  0
   15.6870    1.9380   -0.0950 H   0  0  0  0  0  0  0  0  0  0  0  0
   14.4330   -0.0160   -0.8320 H   0  0  0  0  0  0  0  0  0  0  0  0
   14.7190   -4.3410   -2.3010 H   0  0  0  0  0  0  0  0  0  0  0  0
   16.7980   -5.5450   -1.4250 H   0  0  0  0  0  0  0  0  0  0  0  0
   16.9720   -4.3640   -0.0930 H   0  0  0  0  0  0  0  0  0  0  0  0
   14.6350   -4.9580    0.8020 H   0  0  0  0  0  0  0  0  0  0  0  0
   14.4080   -6.1610   -0.5420 H   0  0  0  0  0  0  0  0  0  0  0  0
   15.2830   -2.3940    3.1400 H   0  0  0  0  0  0  0  0  0  0  0  0
  1  2  1  0  0  0  0
  1 25  1  0  0  0  0
  1 26  1  0  0  0  0
  1 27  1  0  0  0  0
  2  3  1  0  0  0  0
  2 23  1  0  0  0  0
  3  4  1  0  0  0  0
  3  5  2  0  0  0  0
  4 28  1  0  0  0  0
  4 42  1  0  0  0  0
  5  6  1  0  0  0  0
  5 29  1  0  0  0  0
  6  7  1  6  0  0  0
  6 20  1  0  0  0  0
  6 23  1  0  0  0  0
  7  8  2  0  0  0  0
  7 19  1  0  0  0  0
  8  9  1  0  0  0  0
  8 30  1  0  0  0  0
  9 10  2  0  0  0  0
  9 31  1  0  0  0  0
 10 11  1  0  0  0  0
 10 32  1  0  0  0  0
 11 12  1  0  0  0  0
 11 19  2  0  0  0  0
 12 13  2  0  0  0  0
 12 18  1  0  0  0  0
 13 14  1  0  0  0  0
 13 33  1  0  0  0  0
 14 15  2  0  0  0  0
 15 16  1  0  0  0  0
 15 34  1  0  0  0  0
 16 17  1  0  0  0  0
 16 18  2  0  0  0  0
 18 35  1  0  0  0  0
 19 36  1  0  0  0  0
 20 21  1  0  0  0  0
 20 22  1  0  0  0  0
 20 37  1  0  0  0  0
 21 22  1  0  0  0  0
 21 38  1  0  0  0  0
 21 39  1  0  0  0  0
 22 40  1  0  0  0  0
 22 41  1  0  0  0  0
 23 24  2  0  0  0  0
M  CHG  1   5   1
M  END
$$$$
