48
 OpenBabel02232411163D
Structure written by MMmdl.
 42 45  0  0  0  0  0  0  0  0999 V2000
    3.6930  -49.7800    5.8590 O   0  0  0  0  0  0  0  0  0  0  0  0
    2.9290  -48.9970    6.4570 C   0  0  0  0  0  0  0  0  0  0  0  0
    3.2490  -47.9890    7.0970 O   0  5  0  0  0  0  0  0  0  0  0  0
    1.4400  -49.4090    6.3830 C   0  0  0  0  0  0  0  0  0  0  0  0
   -0.2740  -50.9200    6.5590 C   0  0  0  0  0  0  0  0  0  0  0  0
   -1.0950  -52.0250    6.8410 C   0  0  0  0  0  0  0  0  0  0  0  0
   -2.4360  -51.9320    6.4940 C   0  0  0  0  0  0  0  0  0  0  0  0
   -2.9450  -50.7830    5.8470 C   0  0  0  0  0  0  0  0  0  0  0  0
   -2.1310  -49.7000    5.5420 C   0  0  0  0  0  0  0  0  0  0  0  0
   -0.7850  -49.7210    5.9390 C   0  0  0  0  0  0  0  0  0  0  0  0
    0.3080  -48.7720    5.8840 C   0  0  0  0  0  0  0  0  0  0  0  0
    0.1540  -47.3660    5.4240 C   0  0  0  0  0  0  0  0  0  0  0  0
   -0.4550  -46.4400    6.5000 C   0  0  0  0  0  0  0  0  0  0  0  0
   -1.9750  -46.5970    6.5800 C   0  0  0  0  0  0  0  0  0  0  0  0
   -2.3680  -45.7860    7.7480 O   0  0  0  0  0  0  0  0  0  0  0  0
   -3.7260  -45.7190    7.9790 C   0  0  0  0  0  0  0  0  0  0  0  0
   -6.4640  -45.4410    8.7400 C   0  0  0  0  0  0  0  0  0  0  0  0
   -5.5590  -46.1250    9.5330 C   0  0  0  0  0  0  0  0  0  0  0  0
   -4.2030  -46.2740    9.1640 C   0  0  0  0  0  0  0  0  0  0  0  0
   -0.7040  -52.9240    7.3190 H   0  0  0  0  0  0  0  0  0  0  0  0
   -3.1160  -52.7550    6.7170 H   0  0  0  0  0  0  0  0  0  0  0  0
   -4.0030  -50.7540    5.5820 H   0  0  0  0  0  0  0  0  0  0  0  0
   -2.5460  -48.8580    4.9900 H   0  0  0  0  0  0  0  0  0  0  0  0
   -0.5190  -47.3520    4.5280 H   0  0  0  0  0  0  0  0  0  0  0  0
    1.1430  -46.9400    5.1260 H   0  0  0  0  0  0  0  0  0  0  0  0
   -0.2160  -45.3800    6.2540 H   0  0  0  0  0  0  0  0  0  0  0  0
   -0.0190  -46.6700    7.5000 H   0  0  0  0  0  0  0  0  0  0  0  0
   -2.4960  -46.2040    5.6840 H   0  0  0  0  0  0  0  0  0  0  0  0
   -2.2880  -47.6330    6.8340 H   0  0  0  0  0  0  0  0  0  0  0  0
   -3.5330  -46.8230    9.8260 H   0  0  0  0  0  0  0  0  0  0  0  0
   -5.9080  -46.5780   10.4640 H   0  0  0  0  0  0  0  0  0  0  0  0
   -7.5060  -45.3290    9.0200 H   0  0  0  0  0  0  0  0  0  0  0  0
    1.0910  -50.7070    6.8080 N   0  0  0  0  0  0  0  0  0  0  0  0
    1.7020  -51.4180    7.1960 H   0  0  0  0  0  0  0  0  0  0  0  0
   -5.7570  -43.9110    5.4840 C   0  0  0  0  0  0  0  0  0  0  0  0
   -6.6710  -44.2110    6.5240 N   0  0  0  0  0  0  0  0  0  0  0  0
   -5.9820  -44.9090    7.5260 C   0  0  0  0  0  0  0  0  0  0  0  0
   -4.6100  -45.0270    7.1130 C   0  0  0  0  0  0  0  0  0  0  0  0
   -4.5050  -44.3850    5.8270 C   0  0  0  0  0  0  0  0  0  0  0  0
   -7.6610  -44.0340    6.4950 H   0  0  0  0  0  0  0  0  0  0  0  0
   -3.6220  -44.2930    5.2240 H   0  0  0  0  0  0  0  0  0  0  0  0
   -6.0750  -43.3840    4.6020 H   0  0  0  0  0  0  0  0  0  0  0  0
  1  2  2  0  0  0  0
  2  3  1  0  0  0  0
  2  4  1  0  0  0  0
  4 11  2  0  0  0  0
  4 33  1  0  0  0  0
  5  6  2  0  0  0  0
  5 10  1  0  0  0  0
  5 33  1  0  0  0  0
  6  7  1  0  0  0  0
  6 20  1  0  0  0  0
  7  8  2  0  0  0  0
  7 21  1  0  0  0  0
  8  9  1  0  0  0  0
  8 22  1  0  0  0  0
  9 10  2  0  0  0  0
  9 23  1  0  0  0  0
 10 11  1  0  0  0  0
 11 12  1  0  0  0  0
 12 24  1  0  0  0  0
 12 25  1  0  0  0  0
 12 13  1  0  0  0  0
 13 14  1  0  0  0  0
 13 26  1  0  0  0  0
 13 27  1  0  0  0  0
 14 15  1  0  0  0  0
 14 28  1  0  0  0  0
 14 29  1  0  0  0  0
 15 16  1  0  0  0  0
 16 19  2  0  0  0  0
 16 38  1  0  0  0  0
 17 18  2  0  0  0  0
 17 32  1  0  0  0  0
 17 37  1  0  0  0  0
 18 19  1  0  0  0  0
 18 31  1  0  0  0  0
 19 30  1  0  0  0  0
 33 34  1  0  0  0  0
 35 36  1  0  0  0  0
 35 39  2  0  0  0  0
 35 42  1  0  0  0  0
 36 37  1  0  0  0  0
 36 40  1  0  0  0  0
 37 38  2  0  0  0  0
 38 39  1  0  0  0  0
 39 41  1  0  0  0  0
M  CHG  1   3  -1
M  END
$$$$
