18639-1
 OpenBabel02232411163D
Structure written by MMmdl.
 48 49  0  0  0  0  0  0  0  0999 V2000
   24.4690   10.8280   30.7850 C   0  0  0  0  0  0  0  0  0  0  0  0
   23.1540   11.2030   30.1330 C   0  0  0  0  0  0  0  0  0  0  0  0
   22.0680   11.2720   31.1340 O   0  0  0  0  0  0  0  0  0  0  0  0
   21.4790   10.1260   31.5450 C   0  0  0  0  0  0  0  0  0  0  0  0
   21.9510    8.9350   31.1060 N   0  0  0  0  0  0  0  0  0  0  0  0
   21.2550    7.7950   31.4740 C   0  0  0  0  0  0  0  0  0  0  0  0
   20.1210    7.8300   32.2770 C   0  0  0  0  0  0  0  0  0  0  0  0
   19.6390    9.0830   32.7450 C   0  0  0  0  0  0  0  0  0  0  0  0
   18.5010    9.1230   33.5090 N   0  0  0  0  0  0  0  0  0  0  0  0
   20.3370   10.2810   32.3860 C   0  0  0  0  0  0  0  0  0  0  0  0
   19.9390   11.5790   32.7700 C   0  0  0  0  0  0  0  0  0  0  0  0
   19.6650   12.6710   33.0460 N   0  0  0  0  0  0  0  0  0  0  0  0
   21.8380    6.6290   30.9250 N   0  0  0  0  0  0  0  0  0  0  0  0
   21.2560    5.3470   30.8580 C   0  0  0  0  0  0  0  0  0  0  0  0
   20.1760    5.0840   31.3420 O   0  0  0  0  0  0  0  0  0  0  0  0
   22.0830    4.3530   30.0500 C   0  0  0  0  0  0  0  0  0  0  0  0
   23.4510    4.0860   30.6060 C   0  0  0  0  0  0  0  0  0  0  0  0
   24.5460    4.9520   30.2890 C   0  0  0  0  0  0  0  0  0  0  0  0
   24.1850    6.0040   29.4580 O   0  0  0  0  0  0  0  0  0  0  0  0
   25.1440    7.0840   29.2790 C   0  0  0  0  0  0  0  0  0  0  0  0
   25.8270    4.7080   30.7590 C   0  0  0  0  0  0  0  0  0  0  0  0
   26.0600    3.5910   31.5890 C   0  0  0  0  0  0  0  0  0  0  0  0
   27.4130    3.3370   32.0920 N   0  3  0  0  0  0  0  0  0  0  0  0
   27.5490    2.5410   33.0080 O   0  5  0  0  0  0  0  0  0  0  0  0
   28.3510    3.9290   31.5710 O   0  0  0  0  0  0  0  0  0  0  0  0
   24.9900    2.7240   31.9100 C   0  0  0  0  0  0  0  0  0  0  0  0
   23.6940    2.9780   31.4020 C   0  0  0  0  0  0  0  0  0  0  0  0
   25.3390    1.6850   32.7190 O   0  0  0  0  0  0  0  0  0  0  0  0
   24.3420    0.6460   32.9560 C   0  0  0  0  0  0  0  0  0  0  0  0
   25.2650   10.7690   30.0010 H   0  0  0  0  0  0  0  0  0  0  0  0
   24.7710   11.5840   31.5400 H   0  0  0  0  0  0  0  0  0  0  0  0
   24.4030    9.8280   31.2750 H   0  0  0  0  0  0  0  0  0  0  0  0
   23.1430   12.2620   29.7800 H   0  0  0  0  0  0  0  0  0  0  0  0
   22.8670   10.4930   29.3260 H   0  0  0  0  0  0  0  0  0  0  0  0
   19.5840    6.9150   32.5350 H   0  0  0  0  0  0  0  0  0  0  0  0
   18.0040    8.2500   33.7700 H   0  0  0  0  0  0  0  0  0  0  0  0
   18.0980   10.0080   33.8170 H   0  0  0  0  0  0  0  0  0  0  0  0
   22.7480    6.7840   30.4200 H   0  0  0  0  0  0  0  0  0  0  0  0
   21.5120    3.3880   29.9860 H   0  0  0  0  0  0  0  0  0  0  0  0
   22.1920    4.7700   29.0080 H   0  0  0  0  0  0  0  0  0  0  0  0
   25.5020    7.4600   30.2610 H   0  0  0  0  0  0  0  0  0  0  0  0
   25.9730    6.7250   28.6320 H   0  0  0  0  0  0  0  0  0  0  0  0
   24.5170    7.8470   28.7610 H   0  0  0  0  0  0  0  0  0  0  0  0
   26.6680    5.3570   30.4860 H   0  0  0  0  0  0  0  0  0  0  0  0
   22.8790    2.2880   31.6340 H   0  0  0  0  0  0  0  0  0  0  0  0
   24.9280   -0.0880   33.5590 H   0  0  0  0  0  0  0  0  0  0  0  0
   23.4930    1.0570   33.5430 H   0  0  0  0  0  0  0  0  0  0  0  0
   24.0180    0.2000   31.9900 H   0  0  0  0  0  0  0  0  0  0  0  0
  1  2  1  0  0  0  0
  1 30  1  0  0  0  0
  1 31  1  0  0  0  0
  1 32  1  0  0  0  0
  2  3  1  0  0  0  0
  2 33  1  0  0  0  0
  2 34  1  0  0  0  0
  3  4  1  0  0  0  0
  4 10  2  0  0  0  0
  4  5  1  0  0  0  0
  5  6  2  0  0  0  0
  6  7  1  0  0  0  0
  6 13  1  0  0  0  0
  7  8  2  0  0  0  0
  7 35  1  0  0  0  0
  8  9  1  0  0  0  0
  8 10  1  0  0  0  0
  9 36  1  0  0  0  0
  9 37  1  0  0  0  0
 10 11  1  0  0  0  0
 11 12  3  0  0  0  0
 13 14  1  0  0  0  0
 13 38  1  0  0  0  0
 14 15  2  0  0  0  0
 14 16  1  0  0  0  0
 16 17  1  0  0  0  0
 16 39  1  0  0  0  0
 16 40  1  0  0  0  0
 17 27  2  0  0  0  0
 17 18  1  0  0  0  0
 18 19  1  0  0  0  0
 18 21  2  0  0  0  0
 19 20  1  0  0  0  0
 20 41  1  0  0  0  0
 20 42  1  0  0  0  0
 20 43  1  0  0  0  0
 21 22  1  0  0  0  0
 21 44  1  0  0  0  0
 22 23  1  0  0  0  0
 22 26  2  0  0  0  0
 23 24  1  0  0  0  0
 23 25  2  0  0  0  0
 26 27  1  0  0  0  0
 26 28  1  0  0  0  0
 27 45  1  0  0  0  0
 28 29  1  0  0  0  0
 29 46  1  0  0  0  0
 29 47  1  0  0  0  0
 29 48  1  0  0  0  0
M  CHG  2  23   1  24  -1
M  END
$$$$
