18639-1
 OpenBabel02232411163D
Structure written by MMmdl.
 48 49  0  0  0  0  0  0  0  0999 V2000
   24.4350   10.9600   30.7480 C   0  0  0  0  0  0  0  0  0  0  0  0
   23.1000   11.2950   30.1180 C   0  0  0  0  0  0  0  0  0  0  0  0
   22.0320   11.3490   31.1370 O   0  0  0  0  0  0  0  0  0  0  0  0
   21.4500   10.1970   31.5460 C   0  0  0  0  0  0  0  0  0  0  0  0
   21.9340    9.0090   31.1140 N   0  0  0  0  0  0  0  0  0  0  0  0
   21.2400    7.8660   31.4780 C   0  0  0  0  0  0  0  0  0  0  0  0
   20.1020    7.8960   32.2770 C   0  0  0  0  0  0  0  0  0  0  0  0
   19.6100    9.1470   32.7390 C   0  0  0  0  0  0  0  0  0  0  0  0
   18.4760    9.1810   33.5090 N   0  0  0  0  0  0  0  0  0  0  0  0
   20.2970   10.3480   32.3740 C   0  0  0  0  0  0  0  0  0  0  0  0
   19.8780   11.6460   32.7330 C   0  0  0  0  0  0  0  0  0  0  0  0
   19.5830   12.7400   32.9850 N   0  0  0  0  0  0  0  0  0  0  0  0
   21.8280    6.7040   30.9270 N   0  0  0  0  0  0  0  0  0  0  0  0
   21.2730    5.4080   30.8860 C   0  0  0  0  0  0  0  0  0  0  0  0
   20.2060    5.1260   31.3880 O   0  0  0  0  0  0  0  0  0  0  0  0
   22.1120    4.4210   30.0800 C   0  0  0  0  0  0  0  0  0  0  0  0
   23.4900    4.1860   30.6250 C   0  0  0  0  0  0  0  0  0  0  0  0
   24.5660    5.0700   30.2950 C   0  0  0  0  0  0  0  0  0  0  0  0
   24.1790    6.1150   29.4660 O   0  0  0  0  0  0  0  0  0  0  0  0
   25.1140    7.2170   29.2880 C   0  0  0  0  0  0  0  0  0  0  0  0
   25.8560    4.8490   30.7490 C   0  0  0  0  0  0  0  0  0  0  0  0
   26.1190    3.7380   31.5780 C   0  0  0  0  0  0  0  0  0  0  0  0
   27.4840    3.5070   32.0600 N   0  3  0  0  0  0  0  0  0  0  0  0
   27.6490    2.6980   32.9610 O   0  5  0  0  0  0  0  0  0  0  0  0
   28.4020    4.1280   31.5380 O   0  0  0  0  0  0  0  0  0  0  0  0
   25.0680    2.8540   31.9150 C   0  0  0  0  0  0  0  0  0  0  0  0
   23.7620    3.0860   31.4230 C   0  0  0  0  0  0  0  0  0  0  0  0
   25.4450    1.8210   32.7190 O   0  0  0  0  0  0  0  0  0  0  0  0
   24.4700    0.7660   32.9700 C   0  0  0  0  0  0  0  0  0  0  0  0
   25.2190   10.9220   29.9500 H   0  0  0  0  0  0  0  0  0  0  0  0
   24.7290   11.7260   31.4970 H   0  0  0  0  0  0  0  0  0  0  0  0
   24.4080    9.9590   31.2410 H   0  0  0  0  0  0  0  0  0  0  0  0
   23.0570   12.3500   29.7530 H   0  0  0  0  0  0  0  0  0  0  0  0
   22.8170   10.5690   29.3220 H   0  0  0  0  0  0  0  0  0  0  0  0
   19.5720    6.9780   32.5370 H   0  0  0  0  0  0  0  0  0  0  0  0
   17.9740    8.3070   33.7570 H   0  0  0  0  0  0  0  0  0  0  0  0
   18.0620   10.0650   33.8050 H   0  0  0  0  0  0  0  0  0  0  0  0
   22.7330    6.8660   30.4140 H   0  0  0  0  0  0  0  0  0  0  0  0
   21.5590    3.4450   30.0340 H   0  0  0  0  0  0  0  0  0  0  0  0
   22.2020    4.8240   29.0310 H   0  0  0  0  0  0  0  0  0  0  0  0
   25.4700    7.5960   30.2700 H   0  0  0  0  0  0  0  0  0  0  0  0
   25.9460    6.8810   28.6340 H   0  0  0  0  0  0  0  0  0  0  0  0
   24.4670    7.9690   28.7780 H   0  0  0  0  0  0  0  0  0  0  0  0
   26.6820    5.5110   30.4630 H   0  0  0  0  0  0  0  0  0  0  0  0
   22.9610    2.3830   31.6670 H   0  0  0  0  0  0  0  0  0  0  0  0
   25.0790    0.0390   33.5590 H   0  0  0  0  0  0  0  0  0  0  0  0
   23.6260    1.1610   33.5750 H   0  0  0  0  0  0  0  0  0  0  0  0
   24.1340    0.3180   32.0100 H   0  0  0  0  0  0  0  0  0  0  0  0
  1  2  1  0  0  0  0
  1 30  1  0  0  0  0
  1 31  1  0  0  0  0
  1 32  1  0  0  0  0
  2  3  1  0  0  0  0
  2 33  1  0  0  0  0
  2 34  1  0  0  0  0
  3  4  1  0  0  0  0
  4 10  2  0  0  0  0
  4  5  1  0  0  0  0
  5  6  2  0  0  0  0
  6  7  1  0  0  0  0
  6 13  1  0  0  0  0
  7  8  2  0  0  0  0
  7 35  1  0  0  0  0
  8  9  1  0  0  0  0
  8 10  1  0  0  0  0
  9 36  1  0  0  0  0
  9 37  1  0  0  0  0
 10 11  1  0  0  0  0
 11 12  3  0  0  0  0
 13 14  1  0  0  0  0
 13 38  1  0  0  0  0
 14 15  2  0  0  0  0
 14 16  1  0  0  0  0
 16 17  1  0  0  0  0
 16 39  1  0  0  0  0
 16 40  1  0  0  0  0
 17 27  2  0  0  0  0
 17 18  1  0  0  0  0
 18 19  1  0  0  0  0
 18 21  2  0  0  0  0
 19 20  1  0  0  0  0
 20 41  1  0  0  0  0
 20 42  1  0  0  0  0
 20 43  1  0  0  0  0
 21 22  1  0  0  0  0
 21 44  1  0  0  0  0
 22 23  1  0  0  0  0
 22 26  2  0  0  0  0
 23 24  1  0  0  0  0
 23 25  2  0  0  0  0
 26 27  1  0  0  0  0
 26 28  1  0  0  0  0
 27 45  1  0  0  0  0
 28 29  1  0  0  0  0
 29 46  1  0  0  0  0
 29 47  1  0  0  0  0
 29 48  1  0  0  0  0
M  CHG  2  23   1  24  -1
M  END
$$$$
