CAT-13i
 OpenBabel02232411143D
Structure written by MMmdl.
 46 49  0  0  1  0  0  0  0  0999 V2000
   11.7690   -1.8690    1.1940 C   0  0  0  0  0  0  0  0  0  0  0  0
   13.0600   -2.2650    0.6010 N   0  0  0  0  0  0  0  0  0  0  0  0
   14.2400   -2.3710    1.3490 C   0  0  0  0  0  0  0  0  0  0  0  0
   14.3440   -2.3700    2.7050 N   0  0  0  0  0  0  0  0  0  0  0  0
   15.3230   -2.5740    0.4970 N   0  3  0  0  0  0  0  0  0  0  0  0
   14.8440   -2.8820   -0.9000 C   0  0  2  0  0  0  0  0  0  0  0  0
   15.1170   -4.3440   -1.2670 C   0  0  0  0  0  0  0  0  0  0  0  0
   14.6840   -5.4670   -0.3380 C   0  0  0  0  0  0  0  0  0  0  0  0
   13.7400   -5.4390    0.8570 C   0  0  0  0  0  0  0  0  0  0  0  0
   13.3030   -6.1110   -0.4210 C   0  0  0  0  0  0  0  0  0  0  0  0
   15.4060   -1.8290   -1.8530 C   0  0  0  0  0  0  0  0  0  0  0  0
   16.0760   -2.1620   -3.0340 C   0  0  0  0  0  0  0  0  0  0  0  0
   16.5270   -1.1440   -3.8830 C   0  0  0  0  0  0  0  0  0  0  0  0
   16.3190    0.2000   -3.5700 C   0  0  0  0  0  0  0  0  0  0  0  0
   15.6550    0.5500   -2.3810 C   0  0  0  0  0  0  0  0  0  0  0  0
   15.4110    1.9650   -2.0170 C   0  0  0  0  0  0  0  0  0  0  0  0
   14.9930    2.9010   -2.9780 C   0  0  0  0  0  0  0  0  0  0  0  0
   14.6860    4.2130   -2.6000 C   0  0  0  0  0  0  0  0  0  0  0  0
   14.7730    4.6090   -1.2610 C   0  0  0  0  0  0  0  0  0  0  0  0
   15.2040    3.6730   -0.3190 C   0  0  0  0  0  0  0  0  0  0  0  0
   15.2520    4.1020    1.3510 Cl  0  0  0  0  0  0  0  0  0  0  0  0
   15.5520    2.3720   -0.6790 C   0  0  0  0  0  0  0  0  0  0  0  0
   15.2000   -0.4750   -1.5370 C   0  0  0  0  0  0  0  0  0  0  0  0
   13.3060   -2.6250   -0.8020 C   0  0  0  0  0  0  0  0  0  0  0  0
   12.4390   -2.6510   -1.6170 O   0  0  0  0  0  0  0  0  0  0  0  0
   11.6400   -2.3420    2.2040 H   0  0  0  0  0  0  0  0  0  0  0  0
   11.7550   -0.7520    1.2950 H   0  0  0  0  0  0  0  0  0  0  0  0
   10.9310   -2.2060    0.5280 H   0  0  0  0  0  0  0  0  0  0  0  0
   13.6190   -1.9340    3.3230 H   0  0  0  0  0  0  0  0  0  0  0  0
   16.2160   -2.9810    0.8780 H   0  0  0  0  0  0  0  0  0  0  0  0
   16.2320   -4.4410   -1.3940 H   0  0  0  0  0  0  0  0  0  0  0  0
   14.6340   -4.5430   -2.2630 H   0  0  0  0  0  0  0  0  0  0  0  0
   15.5300   -6.1700   -0.2260 H   0  0  0  0  0  0  0  0  0  0  0  0
   14.0110   -6.0690    1.7190 H   0  0  0  0  0  0  0  0  0  0  0  0
   13.2160   -4.5480    1.1890 H   0  0  0  0  0  0  0  0  0  0  0  0
   12.5350   -5.6300   -1.0370 H   0  0  0  0  0  0  0  0  0  0  0  0
   13.2390   -7.2080   -0.4440 H   0  0  0  0  0  0  0  0  0  0  0  0
   16.2520   -3.2020   -3.3120 H   0  0  0  0  0  0  0  0  0  0  0  0
   17.0550   -1.4030   -4.8070 H   0  0  0  0  0  0  0  0  0  0  0  0
   16.6760    0.9740   -4.2560 H   0  0  0  0  0  0  0  0  0  0  0  0
   14.8880    2.6050   -4.0270 H   0  0  0  0  0  0  0  0  0  0  0  0
   14.3540    4.9300   -3.3600 H   0  0  0  0  0  0  0  0  0  0  0  0
   14.4870    5.6210   -0.9630 H   0  0  0  0  0  0  0  0  0  0  0  0
   15.9140    1.6650    0.0680 H   0  0  0  0  0  0  0  0  0  0  0  0
   14.6760   -0.2190   -0.6180 H   0  0  0  0  0  0  0  0  0  0  0  0
   15.3050   -2.3810    3.1420 H   0  0  0  0  0  0  0  0  0  0  0  0
  1  2  1  0  0  0  0
  1 26  1  0  0  0  0
  1 27  1  0  0  0  0
  1 28  1  0  0  0  0
  2  3  1  0  0  0  0
  2 24  1  0  0  0  0
  3  4  1  0  0  0  0
  3  5  2  0  0  0  0
  4 29  1  0  0  0  0
  4 46  1  0  0  0  0
  5  6  1  0  0  0  0
  5 30  1  0  0  0  0
  6  7  1  6  0  0  0
  6 11  1  0  0  0  0
  6 24  1  0  0  0  0
  7  8  1  0  0  0  0
  7 31  1  0  0  0  0
  7 32  1  0  0  0  0
  8  9  1  0  0  0  0
  8 10  1  0  0  0  0
  8 33  1  0  0  0  0
  9 10  1  0  0  0  0
  9 34  1  0  0  0  0
  9 35  1  0  0  0  0
 10 36  1  0  0  0  0
 10 37  1  0  0  0  0
 11 12  2  0  0  0  0
 11 23  1  0  0  0  0
 12 13  1  0  0  0  0
 12 38  1  0  0  0  0
 13 14  2  0  0  0  0
 13 39  1  0  0  0  0
 14 15  1  0  0  0  0
 14 40  1  0  0  0  0
 15 16  1  0  0  0  0
 15 23  2  0  0  0  0
 16 17  2  0  0  0  0
 16 22  1  0  0  0  0
 17 18  1  0  0  0  0
 17 41  1  0  0  0  0
 18 19  2  0  0  0  0
 18 42  1  0  0  0  0
 19 20  1  0  0  0  0
 19 43  1  0  0  0  0
 20 21  1  0  0  0  0
 20 22  2  0  0  0  0
 22 44  1  0  0  0  0
 23 45  1  0  0  0  0
 24 25  2  0  0  0  0
M  CHG  1   5   1
M  END
$$$$
