23470
                    3D
 Schrodinger Suite 2022-3.
 42 43  0  0  1  0  0  0  0  0999 V2000
   43.7400   13.9020   16.7510 S   0  0  0  0  0  0  0  0  0  0  0  0
   43.6090   15.2510   15.6450 C   0  0  0  0  0  0  0  0  0  0  0  0
   42.7070   14.9350   14.6610 C   0  0  0  0  0  0  0  0  0  0  0  0
   42.1090   13.6290   14.8260 C   0  0  0  0  0  0  0  0  0  0  0  0
   42.5480   12.9330   15.9220 C   0  0  0  0  0  0  0  0  0  0  0  0
   44.4150   16.5290   15.8930 C   0  0  0  0  0  0  0  0  0  0  0  0
   45.2460   16.4530   16.8240 O   0  0  0  0  0  0  0  0  0  0  0  0
   44.1950   17.5210   15.1980 O   0  5  0  0  0  0  0  0  0  0  0  0
   42.1770   11.5980   16.3420 C   0  0  0  0  0  0  0  0  0  0  0  0
   40.8640   11.1550   16.1180 C   0  0  0  0  0  0  0  0  0  0  0  0
   40.5440    9.7900   16.2410 C   0  0  0  0  0  0  0  0  0  0  0  0
   41.4740    8.8880   16.7700 C   0  0  0  0  0  0  0  0  0  0  0  0
   42.7400    9.3710   17.1290 C   0  0  0  0  0  0  0  0  0  0  0  0
   43.1100   10.6930   16.8940 C   0  0  0  0  0  0  0  0  0  0  0  0
   40.8510   12.9450   13.5620 Br  0  0  0  0  0  0  0  0  0  0  0  0
   42.4990   15.7230   13.5740 O   0  0  0  0  0  0  0  0  0  0  0  0
   41.1410   16.2610   13.4760 C   0  0  0  0  0  0  0  0  0  0  0  0
   41.3880   17.6430   12.8010 C   0  0  0  0  0  0  0  0  0  0  0  0
   40.3790   18.3770   12.7340 O   0  5  0  0  0  0  0  0  0  0  0  0
   42.5180   17.9100   12.3760 O   0  0  0  0  0  0  0  0  0  0  0  0
   39.2520    9.4100   15.7290 N   0  0  0  0  0  0  0  0  0  0  0  0
   40.0760   11.8560   15.8310 H   0  0  0  0  0  0  0  0  0  0  0  0
   41.2440    7.8300   16.8950 H   0  0  0  0  0  0  0  0  0  0  0  0
   43.4570    8.6780   17.5770 H   0  0  0  0  0  0  0  0  0  0  0  0
   44.1290   11.0080   17.1300 H   0  0  0  0  0  0  0  0  0  0  0  0
   40.6650   16.3600   14.4740 H   0  0  0  0  0  0  0  0  0  0  0  0
   40.5480   15.5790   12.8300 H   0  0  0  0  0  0  0  0  0  0  0  0
   38.8310   10.0920   15.0530 H   0  0  0  0  0  0  0  0  0  0  0  0
   38.7000    8.1130   15.7920 C   0  0  0  0  0  0  0  0  0  0  0  0
   39.0180    7.2920   16.6430 O   0  0  0  0  0  0  0  0  0  0  0  0
   37.6320    7.8750   14.8790 N   0  0  0  0  0  0  0  0  0  0  0  0
   37.5010    8.5340   14.1000 H   0  0  0  0  0  0  0  0  0  0  0  0
   37.2740    6.4670   14.5260 C   0  0  0  0  0  0  0  0  0  0  0  0
   37.2460    5.8640   15.4760 H   0  0  0  0  0  0  0  0  0  0  0  0
   35.8690    6.4700   13.9000 C   0  0  0  0  0  0  0  0  0  0  0  0
   35.5470    5.4190   13.7140 H   0  0  0  0  0  0  0  0  0  0  0  0
   35.1390    6.9420   14.5940 H   0  0  0  0  0  0  0  0  0  0  0  0
   35.8570    7.0160   12.9330 H   0  0  0  0  0  0  0  0  0  0  0  0
   38.3070    5.8470   13.5690 C   0  0  0  0  0  0  0  0  0  0  0  0
   38.3990    6.4390   12.6330 H   0  0  0  0  0  0  0  0  0  0  0  0
   39.3080    5.7820   14.0530 H   0  0  0  0  0  0  0  0  0  0  0  0
   37.9880    4.8140   13.2960 H   0  0  0  0  0  0  0  0  0  0  0  0
  1  2  1  0  0  0  0
  1  5  1  0  0  0  0
  2  3  2  0  0  0  0
  2  6  1  0  0  0  0
  3  4  1  0  0  0  0
  3 16  1  0  0  0  0
  4  5  2  0  0  0  0
  4 15  1  0  0  0  0
  5  9  1  0  0  0  0
  6  7  2  0  0  0  0
  6  8  1  0  0  0  0
  9 10  1  0  0  0  0
  9 14  2  0  0  0  0
 10 11  2  0  0  0  0
 10 22  1  0  0  0  0
 11 12  1  0  0  0  0
 11 21  1  0  0  0  0
 12 13  2  0  0  0  0
 12 23  1  0  0  0  0
 13 14  1  0  0  0  0
 13 24  1  0  0  0  0
 14 25  1  0  0  0  0
 16 17  1  0  0  0  0
 17 18  1  0  0  0  0
 17 26  1  0  0  0  0
 17 27  1  0  0  0  0
 18 19  1  0  0  0  0
 18 20  2  0  0  0  0
 21 28  1  0  0  0  0
 21 29  1  0  0  0  0
 29 30  2  0  0  0  0
 29 31  1  0  0  0  0
 31 32  1  0  0  0  0
 31 33  1  0  0  0  0
 33 34  1  0  0  0  0
 33 35  1  0  0  0  0
 33 39  1  0  0  0  0
 35 36  1  0  0  0  0
 35 37  1  0  0  0  0
 35 38  1  0  0  0  0
 39 40  1  0  0  0  0
 39 41  1  0  0  0  0
 39 42  1  0  0  0  0
M  CHG  2   8  -1  19  -1
M  END
$$$$
