45
 OpenBabel02232411163D
Structure written by MMmdl.
 48 51  0  0  0  0  0  0  0  0999 V2000
    3.6640  -49.8060    5.7920 O   0  0  0  0  0  0  0  0  0  0  0  0
    2.9240  -49.0340    6.4340 C   0  0  0  0  0  0  0  0  0  0  0  0
    3.2710  -48.0500    7.0970 O   0  5  0  0  0  0  0  0  0  0  0  0
    1.4290  -49.4270    6.3840 C   0  0  0  0  0  0  0  0  0  0  0  0
   -0.3020  -50.9160    6.5730 C   0  0  0  0  0  0  0  0  0  0  0  0
   -1.1310  -52.0160    6.8490 C   0  0  0  0  0  0  0  0  0  0  0  0
   -2.4750  -51.9050    6.5190 C   0  0  0  0  0  0  0  0  0  0  0  0
   -2.9810  -50.7400    5.8990 C   0  0  0  0  0  0  0  0  0  0  0  0
   -2.1600  -49.6590    5.6040 C   0  0  0  0  0  0  0  0  0  0  0  0
   -0.8070  -49.7030    5.9750 C   0  0  0  0  0  0  0  0  0  0  0  0
    0.2980  -48.7700    5.9080 C   0  0  0  0  0  0  0  0  0  0  0  0
    0.1620  -47.3620    5.4490 C   0  0  0  0  0  0  0  0  0  0  0  0
   -0.4700  -46.4390    6.5130 C   0  0  0  0  0  0  0  0  0  0  0  0
   -1.9810  -46.6480    6.6170 C   0  0  0  0  0  0  0  0  0  0  0  0
   -2.4650  -45.4840    7.3820 O   0  0  0  0  0  0  0  0  0  0  0  0
   -3.7880  -45.5930    7.7920 C   0  0  0  0  0  0  0  0  0  0  0  0
   -6.3830  -45.6230    8.7670 C   0  0  0  0  0  0  0  0  0  0  0  0
   -5.3690  -46.2610    9.4790 C   0  0  0  0  0  0  0  0  0  0  0  0
   -4.0630  -46.2690    8.9870 C   0  0  0  0  0  0  0  0  0  0  0  0
   -0.7440  -52.9250    7.3100 H   0  0  0  0  0  0  0  0  0  0  0  0
   -3.1610  -52.7250    6.7350 H   0  0  0  0  0  0  0  0  0  0  0  0
   -4.0420  -50.6940    5.6480 H   0  0  0  0  0  0  0  0  0  0  0  0
   -2.5760  -48.8010    5.0790 H   0  0  0  0  0  0  0  0  0  0  0  0
   -0.4890  -47.3410    4.5390 H   0  0  0  0  0  0  0  0  0  0  0  0
    1.1590  -46.9380    5.1790 H   0  0  0  0  0  0  0  0  0  0  0  0
   -0.0090  -46.6210    7.5090 H   0  0  0  0  0  0  0  0  0  0  0  0
   -0.2840  -45.3740    6.2370 H   0  0  0  0  0  0  0  0  0  0  0  0
   -2.4920  -46.5960    5.6320 H   0  0  0  0  0  0  0  0  0  0  0  0
   -2.2490  -47.5620    7.1870 H   0  0  0  0  0  0  0  0  0  0  0  0
   -3.2700  -46.7760    9.5350 H   0  0  0  0  0  0  0  0  0  0  0  0
   -6.1160  -45.0110    7.5310 C   0  0  0  0  0  0  0  0  0  0  0  0
   -4.8000  -44.9510    7.0410 C   0  0  0  0  0  0  0  0  0  0  0  0
   -4.4600  -44.2750    5.7430 C   0  0  0  0  0  0  0  0  0  0  0  0
   -5.6480  -43.5770    5.0620 C   0  0  0  0  0  0  0  0  0  0  0  0
   -6.9460  -44.3690    5.2390 C   0  0  0  0  0  0  0  0  0  0  0  0
   -7.2770  -44.4740    6.7360 C   0  0  0  0  0  0  0  0  0  0  0  0
   -5.6130  -46.7710   10.4110 H   0  0  0  0  0  0  0  0  0  0  0  0
   -7.4000  -45.6170    9.1560 H   0  0  0  0  0  0  0  0  0  0  0  0
   -4.0470  -45.0360    5.0360 H   0  0  0  0  0  0  0  0  0  0  0  0
   -3.6740  -43.5050    5.9250 H   0  0  0  0  0  0  0  0  0  0  0  0
   -5.4080  -43.4520    3.9840 H   0  0  0  0  0  0  0  0  0  0  0  0
   -5.7940  -42.5700    5.5100 H   0  0  0  0  0  0  0  0  0  0  0  0
   -6.8330  -45.3910    4.8090 H   0  0  0  0  0  0  0  0  0  0  0  0
   -7.7870  -43.8680    4.7120 H   0  0  0  0  0  0  0  0  0  0  0  0
   -7.5520  -43.4650    7.1270 H   0  0  0  0  0  0  0  0  0  0  0  0
   -8.1580  -45.1510    6.8640 H   0  0  0  0  0  0  0  0  0  0  0  0
    1.0690  -50.7230    6.8040 N   0  0  0  0  0  0  0  0  0  0  0  0
    1.6760  -51.4430    7.1780 H   0  0  0  0  0  0  0  0  0  0  0  0
  1  2  2  0  0  0  0
  2  3  1  0  0  0  0
  2  4  1  0  0  0  0
  4 11  2  0  0  0  0
  4 47  1  0  0  0  0
  5  6  2  0  0  0  0
  5 10  1  0  0  0  0
  5 47  1  0  0  0  0
  6  7  1  0  0  0  0
  6 20  1  0  0  0  0
  7  8  2  0  0  0  0
  7 21  1  0  0  0  0
  8  9  1  0  0  0  0
  8 22  1  0  0  0  0
  9 10  2  0  0  0  0
  9 23  1  0  0  0  0
 10 11  1  0  0  0  0
 11 12  1  0  0  0  0
 12 24  1  0  0  0  0
 12 25  1  0  0  0  0
 12 13  1  0  0  0  0
 13 14  1  0  0  0  0
 13 26  1  0  0  0  0
 13 27  1  0  0  0  0
 14 15  1  0  0  0  0
 14 28  1  0  0  0  0
 14 29  1  0  0  0  0
 15 16  1  0  0  0  0
 16 19  2  0  0  0  0
 16 32  1  0  0  0  0
 17 18  2  0  0  0  0
 17 31  1  0  0  0  0
 17 38  1  0  0  0  0
 18 19  1  0  0  0  0
 18 37  1  0  0  0  0
 19 30  1  0  0  0  0
 31 32  2  0  0  0  0
 31 36  1  0  0  0  0
 32 33  1  0  0  0  0
 33 34  1  0  0  0  0
 33 39  1  0  0  0  0
 33 40  1  0  0  0  0
 34 35  1  0  0  0  0
 34 41  1  0  0  0  0
 34 42  1  0  0  0  0
 35 36  1  0  0  0  0
 35 43  1  0  0  0  0
 35 44  1  0  0  0  0
 36 45  1  0  0  0  0
 36 46  1  0  0  0  0
 47 48  1  0  0  0  0
M  CHG  1   3  -1
M  END
$$$$
