18660-1
 OpenBabel02232411163D
Structure written by MMmdl.
 52 53  0  0  0  0  0  0  0  0999 V2000
   21.9620   13.3340   29.0040 C   0  0  0  0  0  0  0  0  0  0  0  0
   23.6760   13.0770   29.1680 S   0  0  0  0  0  0  0  0  0  0  0  0
   24.4050   13.5550   27.9780 O   0  0  0  0  0  0  0  0  0  0  0  0
   24.1590   13.7510   30.3830 O   0  0  0  0  0  0  0  0  0  0  0  0
   23.8300   11.3310   29.3510 C   0  0  0  0  0  0  0  0  0  0  0  0
   23.8120   10.8180   30.7800 C   0  0  0  0  0  0  0  0  0  0  0  0
   22.4670   11.0160   31.3660 O   0  0  0  0  0  0  0  0  0  0  0  0
   21.6880    9.9340   31.6220 C   0  0  0  0  0  0  0  0  0  0  0  0
   22.0720    8.7370   31.1310 N   0  0  0  0  0  0  0  0  0  0  0  0
   21.2670    7.6400   31.4030 C   0  0  0  0  0  0  0  0  0  0  0  0
   20.1120    7.7320   32.1720 C   0  0  0  0  0  0  0  0  0  0  0  0
   19.7150    8.9960   32.6830 C   0  0  0  0  0  0  0  0  0  0  0  0
   18.5770    9.0820   33.4450 N   0  0  0  0  0  0  0  0  0  0  0  0
   20.5110   10.1550   32.3930 C   0  0  0  0  0  0  0  0  0  0  0  0
   20.1850   11.4590   32.8210 C   0  0  0  0  0  0  0  0  0  0  0  0
   19.9540   12.5460   33.1530 N   0  0  0  0  0  0  0  0  0  0  0  0
   21.7770    6.4750   30.8030 N   0  0  0  0  0  0  0  0  0  0  0  0
   21.1750    5.1940   30.7750 C   0  0  0  0  0  0  0  0  0  0  0  0
   20.1120    4.9610   31.3060 O   0  0  0  0  0  0  0  0  0  0  0  0
   21.9660    4.1920   29.9490 C   0  0  0  0  0  0  0  0  0  0  0  0
   23.3220    3.8980   30.5240 C   0  0  0  0  0  0  0  0  0  0  0  0
   24.4270    4.7370   30.2450 C   0  0  0  0  0  0  0  0  0  0  0  0
   24.1230    5.7950   29.3890 O   0  0  0  0  0  0  0  0  0  0  0  0
   25.0820    6.8840   29.3080 C   0  0  0  0  0  0  0  0  0  0  0  0
   25.6980    4.4800   30.7740 C   0  0  0  0  0  0  0  0  0  0  0  0
   25.8880    3.3740   31.5950 C   0  0  0  0  0  0  0  0  0  0  0  0
   24.7950    2.5260   31.8660 C   0  0  0  0  0  0  0  0  0  0  0  0
   23.5220    2.7760   31.3350 C   0  0  0  0  0  0  0  0  0  0  0  0
   25.1280    1.4770   32.6970 O   0  0  0  0  0  0  0  0  0  0  0  0
   24.1310    0.4480   32.9240 C   0  0  0  0  0  0  0  0  0  0  0  0
   21.5570   12.8630   28.0740 H   0  0  0  0  0  0  0  0  0  0  0  0
   21.3980   12.8990   29.8740 H   0  0  0  0  0  0  0  0  0  0  0  0
   21.7050   14.4280   28.9740 H   0  0  0  0  0  0  0  0  0  0  0  0
   23.0390   10.7930   28.7500 H   0  0  0  0  0  0  0  0  0  0  0  0
   24.8040   10.9770   28.8910 H   0  0  0  0  0  0  0  0  0  0  0  0
   24.1120    9.7420   30.8130 H   0  0  0  0  0  0  0  0  0  0  0  0
   24.4340   11.4330   31.4760 H   0  0  0  0  0  0  0  0  0  0  0  0
   19.4990    6.8510   32.3750 H   0  0  0  0  0  0  0  0  0  0  0  0
   18.2300    9.9810   33.7800 H   0  0  0  0  0  0  0  0  0  0  0  0
   18.0410    8.2320   33.6980 H   0  0  0  0  0  0  0  0  0  0  0  0
   22.6890    6.6050   30.2930 H   0  0  0  0  0  0  0  0  0  0  0  0
   21.3740    3.2450   29.8700 H   0  0  0  0  0  0  0  0  0  0  0  0
   22.0910    4.6270   28.9200 H   0  0  0  0  0  0  0  0  0  0  0  0
   25.9650    6.5470   28.7240 H   0  0  0  0  0  0  0  0  0  0  0  0
   24.4990    7.6600   28.7600 H   0  0  0  0  0  0  0  0  0  0  0  0
   25.3620    7.2410   30.3230 H   0  0  0  0  0  0  0  0  0  0  0  0
   26.5480    5.1300   30.5460 H   0  0  0  0  0  0  0  0  0  0  0  0
   26.8750    3.1630   32.0160 H   0  0  0  0  0  0  0  0  0  0  0  0
   22.6880    2.1060   31.5450 H   0  0  0  0  0  0  0  0  0  0  0  0
   24.6990   -0.2790   33.5530 H   0  0  0  0  0  0  0  0  0  0  0  0
   23.2670    0.8670   33.4830 H   0  0  0  0  0  0  0  0  0  0  0  0
   23.8280   -0.0120   31.9580 H   0  0  0  0  0  0  0  0  0  0  0  0
  1  2  1  0  0  0  0
  1 31  1  0  0  0  0
  1 32  1  0  0  0  0
  1 33  1  0  0  0  0
  2  3  2  0  0  0  0
  2  4  2  0  0  0  0
  2  5  1  0  0  0  0
  5  6  1  0  0  0  0
  5 34  1  0  0  0  0
  5 35  1  0  0  0  0
  6  7  1  0  0  0  0
  6 36  1  0  0  0  0
  6 37  1  0  0  0  0
  7  8  1  0  0  0  0
  8 14  2  0  0  0  0
  8  9  1  0  0  0  0
  9 10  2  0  0  0  0
 10 11  1  0  0  0  0
 10 17  1  0  0  0  0
 11 12  2  0  0  0  0
 11 38  1  0  0  0  0
 12 13  1  0  0  0  0
 12 14  1  0  0  0  0
 13 39  1  0  0  0  0
 13 40  1  0  0  0  0
 14 15  1  0  0  0  0
 15 16  3  0  0  0  0
 17 18  1  0  0  0  0
 17 41  1  0  0  0  0
 18 19  2  0  0  0  0
 18 20  1  0  0  0  0
 20 21  1  0  0  0  0
 20 42  1  0  0  0  0
 20 43  1  0  0  0  0
 21 28  2  0  0  0  0
 21 22  1  0  0  0  0
 22 23  1  0  0  0  0
 22 25  2  0  0  0  0
 23 24  1  0  0  0  0
 24 44  1  0  0  0  0
 24 45  1  0  0  0  0
 24 46  1  0  0  0  0
 25 26  1  0  0  0  0
 25 47  1  0  0  0  0
 26 27  2  0  0  0  0
 26 48  1  0  0  0  0
 27 28  1  0  0  0  0
 27 29  1  0  0  0  0
 28 49  1  0  0  0  0
 29 30  1  0  0  0  0
 30 50  1  0  0  0  0
 30 51  1  0  0  0  0
 30 52  1  0  0  0  0
M  END
$$$$
