p38a_2i
 OpenBabel02232411163D
Structure written by MMmdl.
 48 51  0  0  0  0  0  0  0  0999 V2000
   32.4420   39.7260   27.2950 C   0  0  0  0  0  0  0  0  0  0  0  0
   33.2940   40.5800   28.2420 C   0  0  0  0  0  0  0  0  0  0  0  0
   35.2320   39.1900   27.9380 C   0  0  0  0  0  0  0  0  0  0  0  0
   34.4740   38.2030   27.0500 C   0  0  0  0  0  0  0  0  0  0  0  0
   38.3000   36.2910   17.6570 C   0  0  0  0  0  0  0  0  0  0  0  0
   34.3380   39.8210   28.8860 O   0  0  0  0  0  0  0  0  0  0  0  0
   34.3290   35.2520   21.0790 C   0  0  0  0  0  0  0  0  0  0  0  0
   37.1560   35.9500   18.3830 C   0  0  0  0  0  0  0  0  0  0  0  0
   33.9900   39.1460   23.9370 C   0  0  0  0  0  0  0  0  0  0  0  0
   33.2760   38.8560   26.3310 C   0  0  0  0  0  0  0  0  0  0  0  0
   34.4530   38.0930   21.4300 C   0  0  0  0  0  0  0  0  0  0  0  0
   34.6340   37.5130   20.1320 C   0  0  0  0  0  0  0  0  0  0  0  0
   38.1620   36.5520   16.2920 C   0  0  0  0  0  0  0  0  0  0  0  0
   36.9090   36.4570   15.6810 C   0  0  0  0  0  0  0  0  0  0  0  0
   35.7780   36.1250   16.4330 C   0  0  0  0  0  0  0  0  0  0  0  0
   34.1760   37.2500   22.5480 C   0  0  0  0  0  0  0  0  0  0  0  0
   34.5030   39.4930   21.6720 C   0  0  0  0  0  0  0  0  0  0  0  0
   34.5470   36.1700   19.9510 C   0  0  0  0  0  0  0  0  0  0  0  0
   35.8730   35.8760   17.8110 C   0  0  0  0  0  0  0  0  0  0  0  0
   33.8620   35.0010   23.5620 C   0  0  0  0  0  0  0  0  0  0  0  0
   37.3080   35.6780   19.6800 F   0  0  0  0  0  0  0  0  0  0  0  0
   34.6280   35.5430   18.5870 C   0  0  0  0  0  0  0  0  0  0  0  0
   34.2930   40.0340   22.8780 N   0  0  0  0  0  0  0  0  0  0  0  0
   34.3030   34.0350   21.0280 O   0  0  0  0  0  0  0  0  0  0  0  0
   34.1360   35.8650   22.3800 N   0  0  0  0  0  0  0  0  0  0  0  0
   33.9420   37.7720   23.7980 N   0  0  0  0  0  0  0  0  0  0  0  0
   33.7130   39.6910   25.1650 N   0  0  0  0  0  0  0  0  0  0  0  0
   31.7930   39.0390   27.8930 H   0  0  0  0  0  0  0  0  0  0  0  0
   31.7720   40.4020   26.7090 H   0  0  0  0  0  0  0  0  0  0  0  0
   33.7630   41.4290   27.6950 H   0  0  0  0  0  0  0  0  0  0  0  0
   32.6900   40.9410   29.1060 H   0  0  0  0  0  0  0  0  0  0  0  0
   35.9510   38.6670   28.6090 H   0  0  0  0  0  0  0  0  0  0  0  0
   35.7280   39.9800   27.3310 H   0  0  0  0  0  0  0  0  0  0  0  0
   35.1770   37.7560   26.3040 H   0  0  0  0  0  0  0  0  0  0  0  0
   34.0740   37.3620   27.6740 H   0  0  0  0  0  0  0  0  0  0  0  0
   39.2790   36.3890   18.1300 H   0  0  0  0  0  0  0  0  0  0  0  0
   32.6090   38.0340   25.9350 H   0  0  0  0  0  0  0  0  0  0  0  0
   34.8360   38.1860   19.2930 H   0  0  0  0  0  0  0  0  0  0  0  0
   36.8030   36.6640   14.6170 H   0  0  0  0  0  0  0  0  0  0  0  0
   34.8080   36.0750   15.9310 H   0  0  0  0  0  0  0  0  0  0  0  0
   34.7100   40.1820   20.8360 H   0  0  0  0  0  0  0  0  0  0  0  0
   34.5940   35.2230   24.3840 H   0  0  0  0  0  0  0  0  0  0  0  0
   32.8250   35.1980   23.9480 H   0  0  0  0  0  0  0  0  0  0  0  0
   33.9480   33.9200   23.2770 H   0  0  0  0  0  0  0  0  0  0  0  0
   33.7710   40.7180   25.3020 H   0  0  0  0  0  0  0  0  0  0  0  0
   39.0290   36.8490   15.7080 H   0  0  0  0  0  0  0  0  0  0  0  0
   34.5480   34.4250   18.6690 H   0  0  0  0  0  0  0  0  0  0  0  0
   33.7280   35.8950   18.0040 H   0  0  0  0  0  0  0  0  0  0  0  0
  1  2  1  0  0  0  0
  1 10  1  0  0  0  0
  1 28  1  0  0  0  0
  1 29  1  0  0  0  0
  2  6  1  0  0  0  0
  2 30  1  0  0  0  0
  2 31  1  0  0  0  0
  3  4  1  0  0  0  0
  3  6  1  0  0  0  0
  3 32  1  0  0  0  0
  3 33  1  0  0  0  0
  4 10  1  0  0  0  0
  4 34  1  0  0  0  0
  4 35  1  0  0  0  0
  5  8  2  0  0  0  0
  5 13  1  0  0  0  0
  5 36  1  0  0  0  0
  7 18  1  0  0  0  0
  7 24  2  0  0  0  0
  7 25  1  0  0  0  0
  8 19  1  0  0  0  0
  8 21  1  0  0  0  0
  9 23  2  0  0  0  0
  9 26  1  0  0  0  0
  9 27  1  0  0  0  0
 10 27  1  0  0  0  0
 10 37  1  0  0  0  0
 11 12  1  0  0  0  0
 11 16  1  0  0  0  0
 11 17  2  0  0  0  0
 12 18  2  0  0  0  0
 12 38  1  0  0  0  0
 13 14  2  0  0  0  0
 13 46  1  0  0  0  0
 14 15  1  0  0  0  0
 14 39  1  0  0  0  0
 15 19  2  0  0  0  0
 15 40  1  0  0  0  0
 16 25  1  0  0  0  0
 16 26  2  0  0  0  0
 17 23  1  0  0  0  0
 17 41  1  0  0  0  0
 18 22  1  0  0  0  0
 19 22  1  0  0  0  0
 20 25  1  0  0  0  0
 20 42  1  0  0  0  0
 20 43  1  0  0  0  0
 20 44  1  0  0  0  0
 22 47  1  0  0  0  0
 22 48  1  0  0  0  0
 27 45  1  0  0  0  0
M  END
$$$$
