18652-1
 OpenBabel02232411163D
Structure written by MMmdl.
 55 56  0  0  0  0  0  0  0  0999 V2000
   24.6370   10.3060   30.8020 C   0  0  0  0  0  0  0  0  0  0  0  0
   23.4430   10.9960   30.1720 C   0  0  0  0  0  0  0  0  0  0  0  0
   23.0410   10.4270   28.8240 C   0  0  0  0  0  0  0  0  0  0  0  0
   22.2860   11.0300   31.1110 O   0  0  0  0  0  0  0  0  0  0  0  0
   21.6590    9.9120   31.5240 C   0  0  0  0  0  0  0  0  0  0  0  0
   22.0980    8.6930   31.1290 N   0  0  0  0  0  0  0  0  0  0  0  0
   21.3630    7.5870   31.5140 C   0  0  0  0  0  0  0  0  0  0  0  0
   20.2170    7.6770   32.2980 C   0  0  0  0  0  0  0  0  0  0  0  0
   19.7650    8.9560   32.7220 C   0  0  0  0  0  0  0  0  0  0  0  0
   18.6120    9.0480   33.4630 N   0  0  0  0  0  0  0  0  0  0  0  0
   20.5090   10.1200   32.3490 C   0  0  0  0  0  0  0  0  0  0  0  0
   20.1530   11.4350   32.7150 C   0  0  0  0  0  0  0  0  0  0  0  0
   19.9070   12.5360   32.9840 N   0  0  0  0  0  0  0  0  0  0  0  0
   21.9050    6.3830   30.9950 N   0  0  0  0  0  0  0  0  0  0  0  0
   21.2160    5.1560   30.9160 C   0  0  0  0  0  0  0  0  0  0  0  0
   20.1380    4.9750   31.4410 O   0  0  0  0  0  0  0  0  0  0  0  0
   21.8910    4.1160   30.0390 C   0  0  0  0  0  0  0  0  0  0  0  0
   23.2590    3.6770   30.4700 C   0  0  0  0  0  0  0  0  0  0  0  0
   24.4140    4.3560   29.9770 C   0  0  0  0  0  0  0  0  0  0  0  0
   24.1000    5.4930   29.2360 O   0  0  0  0  0  0  0  0  0  0  0  0
   25.1620    6.4690   29.0580 C   0  0  0  0  0  0  0  0  0  0  0  0
   25.6910    3.8510   30.1810 C   0  0  0  0  0  0  0  0  0  0  0  0
   25.8810    2.6850   30.9500 C   0  0  0  0  0  0  0  0  0  0  0  0
   27.5090    2.0490   31.0590 S   0  0  0  0  0  0  0  0  0  0  0  0
   27.4880    0.8590   31.9450 O   0  0  0  0  0  0  0  0  0  0  0  0
   28.4290    3.0830   31.5910 O   0  0  0  0  0  0  0  0  0  0  0  0
   27.9230    1.6030   29.4330 C   0  0  0  0  0  0  0  0  0  0  0  0
   24.7590    2.0830   31.5360 C   0  0  0  0  0  0  0  0  0  0  0  0
   23.4460    2.5590   31.2630 C   0  0  0  0  0  0  0  0  0  0  0  0
   25.0280    1.0380   32.3770 O   0  0  0  0  0  0  0  0  0  0  0  0
   23.9030    0.2840   32.9170 C   0  0  0  0  0  0  0  0  0  0  0  0
   24.8520   10.7230   31.8050 H   0  0  0  0  0  0  0  0  0  0  0  0
   24.4690    9.2050   30.8950 H   0  0  0  0  0  0  0  0  0  0  0  0
   25.5340   10.4510   30.1510 H   0  0  0  0  0  0  0  0  0  0  0  0
   23.5950   12.1070   30.1150 H   0  0  0  0  0  0  0  0  0  0  0  0
   22.1680   10.9710   28.4040 H   0  0  0  0  0  0  0  0  0  0  0  0
   23.8940   10.5470   28.1110 H   0  0  0  0  0  0  0  0  0  0  0  0
   22.7960    9.3420   28.8910 H   0  0  0  0  0  0  0  0  0  0  0  0
   19.6490    6.7870   32.5760 H   0  0  0  0  0  0  0  0  0  0  0  0
   18.0880    8.1970   33.7420 H   0  0  0  0  0  0  0  0  0  0  0  0
   18.2330    9.9500   33.7500 H   0  0  0  0  0  0  0  0  0  0  0  0
   22.8140    6.4730   30.4840 H   0  0  0  0  0  0  0  0  0  0  0  0
   21.2260    3.2140   29.9850 H   0  0  0  0  0  0  0  0  0  0  0  0
   21.9680    4.5610   29.0050 H   0  0  0  0  0  0  0  0  0  0  0  0
   25.8710    6.0960   28.2870 H   0  0  0  0  0  0  0  0  0  0  0  0
   24.5960    7.3590   28.7000 H   0  0  0  0  0  0  0  0  0  0  0  0
   25.6700    6.6750   30.0250 H   0  0  0  0  0  0  0  0  0  0  0  0
   26.5500    4.3530   29.7240 H   0  0  0  0  0  0  0  0  0  0  0  0
   27.9520    2.4850   28.7400 H   0  0  0  0  0  0  0  0  0  0  0  0
   28.9300    1.1150   29.3620 H   0  0  0  0  0  0  0  0  0  0  0  0
   27.1850    0.8850   28.9890 H   0  0  0  0  0  0  0  0  0  0  0  0
   22.5790    2.0280   31.6570 H   0  0  0  0  0  0  0  0  0  0  0  0
   23.2800    0.9290   33.5730 H   0  0  0  0  0  0  0  0  0  0  0  0
   23.3180   -0.1730   32.0910 H   0  0  0  0  0  0  0  0  0  0  0  0
   24.4260   -0.5030   33.5130 H   0  0  0  0  0  0  0  0  0  0  0  0
  1  2  1  0  0  0  0
  1 32  1  0  0  0  0
  1 33  1  0  0  0  0
  1 34  1  0  0  0  0
  2  3  1  0  0  0  0
  2  4  1  0  0  0  0
  2 35  1  0  0  0  0
  3 36  1  0  0  0  0
  3 37  1  0  0  0  0
  3 38  1  0  0  0  0
  4  5  1  0  0  0  0
  5 11  2  0  0  0  0
  5  6  1  0  0  0  0
  6  7  2  0  0  0  0
  7  8  1  0  0  0  0
  7 14  1  0  0  0  0
  8  9  2  0  0  0  0
  8 39  1  0  0  0  0
  9 10  1  0  0  0  0
  9 11  1  0  0  0  0
 10 40  1  0  0  0  0
 10 41  1  0  0  0  0
 11 12  1  0  0  0  0
 12 13  3  0  0  0  0
 14 15  1  0  0  0  0
 14 42  1  0  0  0  0
 15 16  2  0  0  0  0
 15 17  1  0  0  0  0
 17 18  1  0  0  0  0
 17 43  1  0  0  0  0
 17 44  1  0  0  0  0
 18 29  2  0  0  0  0
 18 19  1  0  0  0  0
 19 20  1  0  0  0  0
 19 22  2  0  0  0  0
 20 21  1  0  0  0  0
 21 45  1  0  0  0  0
 21 46  1  0  0  0  0
 21 47  1  0  0  0  0
 22 23  1  0  0  0  0
 22 48  1  0  0  0  0
 23 24  1  0  0  0  0
 23 28  2  0  0  0  0
 24 25  2  0  0  0  0
 24 26  2  0  0  0  0
 24 27  1  0  0  0  0
 27 49  1  0  0  0  0
 27 50  1  0  0  0  0
 27 51  1  0  0  0  0
 28 29  1  0  0  0  0
 28 30  1  0  0  0  0
 29 52  1  0  0  0  0
 30 31  1  0  0  0  0
 31 53  1  0  0  0  0
 31 54  1  0  0  0  0
 31 55  1  0  0  0  0
M  END
$$$$
