27
 OpenBabel02232411163D
Structure written by MMmdl.
 38 40  0  0  0  0  0  0  0  0999 V2000
    3.3960  -48.2110    7.1060 O   0  0  0  0  0  0  0  0  0  0  0  0
    3.0060  -49.1850    6.4480 C   0  0  0  0  0  0  0  0  0  0  0  0
    3.7180  -50.0080    5.8400 O   0  5  0  0  0  0  0  0  0  0  0  0
    1.4920  -49.4640    6.3690 C   0  0  0  0  0  0  0  0  0  0  0  0
   -0.3750  -50.7820    6.5280 C   0  0  0  0  0  0  0  0  0  0  0  0
   -1.3040  -51.8130    6.7510 C   0  0  0  0  0  0  0  0  0  0  0  0
   -2.6330  -51.5510    6.4520 C   0  0  0  0  0  0  0  0  0  0  0  0
   -3.0370  -50.2970    5.9370 C   0  0  0  0  0  0  0  0  0  0  0  0
   -2.1250  -49.2740    5.7180 C   0  0  0  0  0  0  0  0  0  0  0  0
   -0.7700  -49.4920    6.0170 C   0  0  0  0  0  0  0  0  0  0  0  0
    0.4260  -48.6790    5.9440 C   0  0  0  0  0  0  0  0  0  0  0  0
    0.4300  -47.2620    5.4950 C   0  0  0  0  0  0  0  0  0  0  0  0
    0.3220  -46.2620    6.6600 C   0  0  0  0  0  0  0  0  0  0  0  0
   -1.0100  -46.3180    7.4080 C   0  0  0  0  0  0  0  0  0  0  0  0
   -1.9780  -45.7490    6.4520 O   0  0  0  0  0  0  0  0  0  0  0  0
   -3.2340  -45.4510    6.8940 C   0  0  0  0  0  0  0  0  0  0  0  0
   -3.7890  -45.8740    8.1140 C   0  0  0  0  0  0  0  0  0  0  0  0
   -5.0940  -45.4810    8.4280 C   0  0  0  0  0  0  0  0  0  0  0  0
   -5.8340  -44.6830    7.5530 C   0  0  0  0  0  0  0  0  0  0  0  0
   -5.2720  -44.2800    6.3320 C   0  0  0  0  0  0  0  0  0  0  0  0
   -3.9790  -44.6570    5.9890 C   0  0  0  0  0  0  0  0  0  0  0  0
   -1.0000  -52.7810    7.1490 H   0  0  0  0  0  0  0  0  0  0  0  0
   -3.3890  -52.3200    6.6170 H   0  0  0  0  0  0  0  0  0  0  0  0
   -4.0930  -50.1400    5.7130 H   0  0  0  0  0  0  0  0  0  0  0  0
   -2.4640  -48.3150    5.3220 H   0  0  0  0  0  0  0  0  0  0  0  0
   -0.4480  -47.0970    4.8180 H   0  0  0  0  0  0  0  0  0  0  0  0
    1.3630  -47.0310    4.9270 H   0  0  0  0  0  0  0  0  0  0  0  0
    0.4400  -45.2270    6.2580 H   0  0  0  0  0  0  0  0  0  0  0  0
    1.1340  -46.4660    7.4000 H   0  0  0  0  0  0  0  0  0  0  0  0
   -1.0040  -45.6590    8.3030 H   0  0  0  0  0  0  0  0  0  0  0  0
   -1.3460  -47.3520    7.6300 H   0  0  0  0  0  0  0  0  0  0  0  0
   -3.2470  -46.5100    8.8080 H   0  0  0  0  0  0  0  0  0  0  0  0
   -3.5440  -44.3530    5.0410 H   0  0  0  0  0  0  0  0  0  0  0  0
    1.0130  -50.7390    6.7340 N   0  0  0  0  0  0  0  0  0  0  0  0
    1.5520  -51.5280    7.0720 H   0  0  0  0  0  0  0  0  0  0  0  0
   -5.8600  -43.6660    5.6470 H   0  0  0  0  0  0  0  0  0  0  0  0
   -6.8480  -44.3830    7.8100 H   0  0  0  0  0  0  0  0  0  0  0  0
   -5.5440  -45.8050    9.3700 H   0  0  0  0  0  0  0  0  0  0  0  0
  1  2  2  0  0  0  0
  2  3  1  0  0  0  0
  2  4  1  0  0  0  0
  4 11  2  0  0  0  0
  4 34  1  0  0  0  0
  5  6  2  0  0  0  0
  5 10  1  0  0  0  0
  5 34  1  0  0  0  0
  6  7  1  0  0  0  0
  6 22  1  0  0  0  0
  7  8  2  0  0  0  0
  7 23  1  0  0  0  0
  8  9  1  0  0  0  0
  8 24  1  0  0  0  0
  9 10  2  0  0  0  0
  9 25  1  0  0  0  0
 10 11  1  0  0  0  0
 11 12  1  0  0  0  0
 12 26  1  0  0  0  0
 12 27  1  0  0  0  0
 12 13  1  0  0  0  0
 13 14  1  0  0  0  0
 13 28  1  0  0  0  0
 13 29  1  0  0  0  0
 14 15  1  0  0  0  0
 14 30  1  0  0  0  0
 14 31  1  0  0  0  0
 15 16  1  0  0  0  0
 16 17  2  0  0  0  0
 16 21  1  0  0  0  0
 17 18  1  0  0  0  0
 17 32  1  0  0  0  0
 18 19  2  0  0  0  0
 18 38  1  0  0  0  0
 19 20  1  0  0  0  0
 19 37  1  0  0  0  0
 20 21  2  0  0  0  0
 20 36  1  0  0  0  0
 21 33  1  0  0  0  0
 34 35  1  0  0  0  0
M  CHG  1   3  -1
M  END
$$$$
