CAT-13i
 OpenBabel02232411143D
Structure written by MMmdl.
 46 49  0  0  1  0  0  0  0  0999 V2000
   11.7750   -1.8510    1.1920 C   0  0  0  0  0  0  0  0  0  0  0  0
   13.0640   -2.2510    0.6000 N   0  0  0  0  0  0  0  0  0  0  0  0
   14.2430   -2.3680    1.3480 C   0  0  0  0  0  0  0  0  0  0  0  0
   14.3450   -2.3730    2.7050 N   0  0  0  0  0  0  0  0  0  0  0  0
   15.3250   -2.5750    0.4950 N   0  3  0  0  0  0  0  0  0  0  0  0
   14.8450   -2.8740   -0.9030 C   0  0  2  0  0  0  0  0  0  0  0  0
   15.1010   -4.3380   -1.2750 C   0  0  0  0  0  0  0  0  0  0  0  0
   14.6890   -5.4520   -0.3260 C   0  0  0  0  0  0  0  0  0  0  0  0
   13.7300   -5.4170    0.8580 C   0  0  0  0  0  0  0  0  0  0  0  0
   13.3260   -6.1330   -0.4070 C   0  0  0  0  0  0  0  0  0  0  0  0
   15.4160   -1.8220   -1.8500 C   0  0  0  0  0  0  0  0  0  0  0  0
   16.0900   -2.1540   -3.0300 C   0  0  0  0  0  0  0  0  0  0  0  0
   16.5440   -1.1350   -3.8760 C   0  0  0  0  0  0  0  0  0  0  0  0
   16.3320    0.2080   -3.5630 C   0  0  0  0  0  0  0  0  0  0  0  0
   15.6650    0.5570   -2.3760 C   0  0  0  0  0  0  0  0  0  0  0  0
   15.4160    1.9730   -2.0150 C   0  0  0  0  0  0  0  0  0  0  0  0
   14.9950    2.9050   -2.9770 C   0  0  0  0  0  0  0  0  0  0  0  0
   14.6800    4.2160   -2.6020 C   0  0  0  0  0  0  0  0  0  0  0  0
   14.7620    4.6140   -1.2630 C   0  0  0  0  0  0  0  0  0  0  0  0
   15.1960    3.6810   -0.3190 C   0  0  0  0  0  0  0  0  0  0  0  0
   15.2380    4.1120    1.3510 Cl  0  0  0  0  0  0  0  0  0  0  0  0
   15.5520    2.3810   -0.6770 C   0  0  0  0  0  0  0  0  0  0  0  0
   15.2100   -0.4680   -1.5330 C   0  0  0  0  0  0  0  0  0  0  0  0
   13.3080   -2.6040   -0.8050 C   0  0  0  0  0  0  0  0  0  0  0  0
   12.4430   -2.6160   -1.6220 O   0  0  0  0  0  0  0  0  0  0  0  0
   11.6410   -2.3270    2.2000 H   0  0  0  0  0  0  0  0  0  0  0  0
   11.7670   -0.7340    1.2970 H   0  0  0  0  0  0  0  0  0  0  0  0
   10.9360   -2.1800    0.5230 H   0  0  0  0  0  0  0  0  0  0  0  0
   13.6210   -1.9340    3.3210 H   0  0  0  0  0  0  0  0  0  0  0  0
   16.2170   -2.9830    0.8750 H   0  0  0  0  0  0  0  0  0  0  0  0
   16.2130   -4.4410   -1.4290 H   0  0  0  0  0  0  0  0  0  0  0  0
   14.5950   -4.5380   -2.2590 H   0  0  0  0  0  0  0  0  0  0  0  0
   15.5510   -6.1300   -0.1890 H   0  0  0  0  0  0  0  0  0  0  0  0
   14.0070   -6.0140    1.7400 H   0  0  0  0  0  0  0  0  0  0  0  0
   13.1760   -4.5320    1.1570 H   0  0  0  0  0  0  0  0  0  0  0  0
   12.5520   -5.6850   -1.0410 H   0  0  0  0  0  0  0  0  0  0  0  0
   13.2870   -7.2310   -0.4040 H   0  0  0  0  0  0  0  0  0  0  0  0
   16.2640   -3.1940   -3.3070 H   0  0  0  0  0  0  0  0  0  0  0  0
   17.0750   -1.3920   -4.7980 H   0  0  0  0  0  0  0  0  0  0  0  0
   16.6880    0.9840   -4.2490 H   0  0  0  0  0  0  0  0  0  0  0  0
   14.8930    2.6070   -4.0260 H   0  0  0  0  0  0  0  0  0  0  0  0
   14.3450    4.9300   -3.3640 H   0  0  0  0  0  0  0  0  0  0  0  0
   14.4690    5.6240   -0.9660 H   0  0  0  0  0  0  0  0  0  0  0  0
   15.9140    1.6760    0.0720 H   0  0  0  0  0  0  0  0  0  0  0  0
   14.6850   -0.2140   -0.6140 H   0  0  0  0  0  0  0  0  0  0  0  0
   15.3060   -2.3870    3.1420 H   0  0  0  0  0  0  0  0  0  0  0  0
  1  2  1  0  0  0  0
  1 26  1  0  0  0  0
  1 27  1  0  0  0  0
  1 28  1  0  0  0  0
  2  3  1  0  0  0  0
  2 24  1  0  0  0  0
  3  4  1  0  0  0  0
  3  5  2  0  0  0  0
  4 29  1  0  0  0  0
  4 46  1  0  0  0  0
  5  6  1  0  0  0  0
  5 30  1  0  0  0  0
  6  7  1  6  0  0  0
  6 11  1  0  0  0  0
  6 24  1  0  0  0  0
  7  8  1  0  0  0  0
  7 31  1  0  0  0  0
  7 32  1  0  0  0  0
  8  9  1  0  0  0  0
  8 10  1  0  0  0  0
  8 33  1  0  0  0  0
  9 10  1  0  0  0  0
  9 34  1  0  0  0  0
  9 35  1  0  0  0  0
 10 36  1  0  0  0  0
 10 37  1  0  0  0  0
 11 12  2  0  0  0  0
 11 23  1  0  0  0  0
 12 13  1  0  0  0  0
 12 38  1  0  0  0  0
 13 14  2  0  0  0  0
 13 39  1  0  0  0  0
 14 15  1  0  0  0  0
 14 40  1  0  0  0  0
 15 16  1  0  0  0  0
 15 23  2  0  0  0  0
 16 17  2  0  0  0  0
 16 22  1  0  0  0  0
 17 18  1  0  0  0  0
 17 41  1  0  0  0  0
 18 19  2  0  0  0  0
 18 42  1  0  0  0  0
 19 20  1  0  0  0  0
 19 43  1  0  0  0  0
 20 21  1  0  0  0  0
 20 22  2  0  0  0  0
 22 44  1  0  0  0  0
 23 45  1  0  0  0  0
 24 25  2  0  0  0  0
M  CHG  1   5   1
M  END
$$$$
