CAT-17a
                    3D
 Schrodinger Suite 2022-3.
 43 46  0  0  1  0  0  0  0  0999 V2000
   11.7790   -2.4550    1.3340 C   0  0  0  0  0  0  0  0  0  0  0  0
   13.0510   -2.8240    0.6810 N   0  0  0  0  0  0  0  0  0  0  0  0
   14.2630   -2.7790    1.3810 C   0  0  0  0  0  0  0  0  0  0  0  0
   14.4000   -2.7000    2.7380 N   0  0  0  0  0  0  0  0  0  0  0  0
   15.3200   -2.9170    0.4970 N   0  3  0  0  0  0  0  0  0  0  0  0
   14.8440   -3.1330   -0.9190 C   0  0  1  0  0  0  0  0  0  0  0  0
   15.3850   -1.9980   -1.7680 C   0  0  0  0  0  0  0  0  0  0  0  0
   16.2360   -2.2310   -2.8540 C   0  0  0  0  0  0  0  0  0  0  0  0
   16.6880   -1.1530   -3.6240 C   0  0  0  0  0  0  0  0  0  0  0  0
   16.3280    0.1560   -3.2990 C   0  0  0  0  0  0  0  0  0  0  0  0
   15.5140    0.4020   -2.1800 C   0  0  0  0  0  0  0  0  0  0  0  0
   15.2140    1.7830   -1.7320 C   0  0  0  0  0  0  0  0  0  0  0  0
   15.5460    2.1390   -0.4140 C   0  0  0  0  0  0  0  0  0  0  0  0
   15.2620    3.4260    0.0420 C   0  0  0  0  0  0  0  0  0  0  0  0
   15.5990    3.8210    1.6790 Cl  0  0  0  0  0  0  0  0  0  0  0  0
   14.6790    4.3870   -0.7840 C   0  0  0  0  0  0  0  0  0  0  0  0
   14.3620    4.0100   -2.0930 C   0  0  0  0  0  0  0  0  0  0  0  0
   13.6370    5.1830   -3.1100 Cl  0  0  0  0  0  0  0  0  0  0  0  0
   14.6100    2.7220   -2.5790 C   0  0  0  0  0  0  0  0  0  0  0  0
   15.0260   -0.6810   -1.4370 C   0  0  0  0  0  0  0  0  0  0  0  0
   15.0970   -4.5350   -1.4450 C   0  0  0  0  0  0  0  0  0  0  0  0
   16.3160   -5.3430   -1.0220 C   0  0  0  0  0  0  0  0  0  0  0  0
   14.9400   -5.7620   -0.5530 C   0  0  0  0  0  0  0  0  0  0  0  0
   13.2890   -2.9840   -0.7630 C   0  0  0  0  0  0  0  0  0  0  0  0
   12.4030   -3.0010   -1.5550 O   0  0  0  0  0  0  0  0  0  0  0  0
   11.6440   -3.0560    2.2750 H   0  0  0  0  0  0  0  0  0  0  0  0
   11.8070   -1.3630    1.5910 H   0  0  0  0  0  0  0  0  0  0  0  0
   10.9220   -2.6660    0.6410 H   0  0  0  0  0  0  0  0  0  0  0  0
   13.6780   -2.2120    3.3250 H   0  0  0  0  0  0  0  0  0  0  0  0
   16.2880   -3.1420    0.8370 H   0  0  0  0  0  0  0  0  0  0  0  0
   16.5570   -3.2450   -3.1000 H   0  0  0  0  0  0  0  0  0  0  0  0
   17.3430   -1.3450   -4.4810 H   0  0  0  0  0  0  0  0  0  0  0  0
   16.6910    0.9890   -3.9100 H   0  0  0  0  0  0  0  0  0  0  0  0
   16.0060    1.3980    0.2400 H   0  0  0  0  0  0  0  0  0  0  0  0
   14.4660    5.3940   -0.4130 H   0  0  0  0  0  0  0  0  0  0  0  0
   14.3270    2.4410   -3.5980 H   0  0  0  0  0  0  0  0  0  0  0  0
   14.3720   -0.4980   -0.5860 H   0  0  0  0  0  0  0  0  0  0  0  0
   14.7620   -4.6270   -2.4960 H   0  0  0  0  0  0  0  0  0  0  0  0
   16.8270   -5.9420   -1.7890 H   0  0  0  0  0  0  0  0  0  0  0  0
   17.0170   -4.9030   -0.3000 H   0  0  0  0  0  0  0  0  0  0  0  0
   14.6680   -5.6260    0.5000 H   0  0  0  0  0  0  0  0  0  0  0  0
   14.4800   -6.6620   -0.9900 H   0  0  0  0  0  0  0  0  0  0  0  0
   15.3740   -2.5990    3.1340 H   0  0  0  0  0  0  0  0  0  0  0  0
  1  2  1  0  0  0  0
  1 26  1  0  0  0  0
  1 27  1  0  0  0  0
  1 28  1  0  0  0  0
  2  3  1  0  0  0  0
  2 24  1  0  0  0  0
  3  4  1  0  0  0  0
  3  5  2  0  0  0  0
  4 29  1  0  0  0  0
  4 43  1  0  0  0  0
  5  6  1  0  0  0  0
  5 30  1  0  0  0  0
  6  7  1  0  0  0  0
  6 21  1  0  0  0  0
  6 24  1  0  0  0  0
  7  8  2  0  0  0  0
  7 20  1  0  0  0  0
  8  9  1  0  0  0  0
  8 31  1  0  0  0  0
  9 10  2  0  0  0  0
  9 32  1  0  0  0  0
 10 11  1  0  0  0  0
 10 33  1  0  0  0  0
 11 12  1  0  0  0  0
 11 20  2  0  0  0  0
 12 13  2  0  0  0  0
 12 19  1  0  0  0  0
 13 14  1  0  0  0  0
 13 34  1  0  0  0  0
 14 15  1  0  0  0  0
 14 16  2  0  0  0  0
 16 17  1  0  0  0  0
 16 35  1  0  0  0  0
 17 18  1  0  0  0  0
 17 19  2  0  0  0  0
 19 36  1  0  0  0  0
 20 37  1  0  0  0  0
 21 22  1  0  0  0  0
 21 23  1  0  0  0  0
 21 38  1  0  0  0  0
 22 23  1  0  0  0  0
 22 39  1  0  0  0  0
 22 40  1  0  0  0  0
 23 41  1  0  0  0  0
 23 42  1  0  0  0  0
 24 25  2  0  0  0  0
M  CHG  1   5   1
M  END
$$$$
