ejm_54
                    3D
 Schrodinger Suite 2022-3.
 37 38  0  0  1  0  0  0  0  0999 V2000
   -3.1520   22.6000  -29.6110 C   0  0  0  0  0  0  0  0  0  0  0  0
   -3.6160   21.5110  -28.8550 C   0  0  0  0  0  0  0  0  0  0  0  0
   -2.8060   20.8750  -27.9140 C   0  0  0  0  0  0  0  0  0  0  0  0
   -5.2010   25.2390  -31.4530 C   0  0  0  0  0  0  0  0  0  0  0  0
   -4.0250   23.1290  -30.7120 C   0  0  0  0  0  0  0  0  0  0  0  0
   -5.8590   24.6810  -32.5610 C   0  0  0  0  0  0  0  0  0  0  0  0
   -6.7430   25.4910  -33.2880 C   0  0  0  0  0  0  0  0  0  0  0  0
   -1.8600   23.0700  -29.3450 C   0  0  0  0  0  0  0  0  0  0  0  0
   -1.5070   21.3450  -27.6970 C   0  0  0  0  0  0  0  0  0  0  0  0
   -1.0330   22.4540  -28.4020 C   0  0  0  0  0  0  0  0  0  0  0  0
   -5.2190   20.9550  -29.0970 Cl  0  0  0  0  0  0  0  0  0  0  0  0
   -4.4410   22.4130  -31.5970 O   0  0  0  0  0  0  0  0  0  0  0  0
   -4.3310   24.4990  -30.6010 N   0  0  0  0  0  0  0  0  0  0  0  0
   -6.9810   26.7930  -32.9910 N   0  0  0  0  0  0  0  0  0  0  0  0
   -6.3140   27.3300  -31.9080 C   0  0  0  0  0  0  0  0  0  0  0  0
   -5.4150   26.5930  -31.1230 C   0  0  0  0  0  0  0  0  0  0  0  0
   -6.6570   28.6780  -31.6130 N   0  0  0  0  0  0  0  0  0  0  0  0
   -5.7930   29.6170  -30.9690 C   0  0  0  0  0  0  0  0  0  0  0  0
   -4.7530   29.2690  -30.4320 O   0  0  0  0  0  0  0  0  0  0  0  0
   -1.2500   24.4440  -30.1710 Cl  0  0  0  0  0  0  0  0  0  0  0  0
   -3.1640   20.0150  -27.3440 H   0  0  0  0  0  0  0  0  0  0  0  0
   -5.7180   23.6370  -32.8550 H   0  0  0  0  0  0  0  0  0  0  0  0
   -7.2930   25.0800  -34.1520 H   0  0  0  0  0  0  0  0  0  0  0  0
   -0.8600   20.8460  -26.9660 H   0  0  0  0  0  0  0  0  0  0  0  0
   -0.0260   22.8290  -28.2020 H   0  0  0  0  0  0  0  0  0  0  0  0
   -3.9170   25.0240  -29.8080 H   0  0  0  0  0  0  0  0  0  0  0  0
   -4.8960   27.0590  -30.2810 H   0  0  0  0  0  0  0  0  0  0  0  0
   -7.5640   29.0150  -32.0060 H   0  0  0  0  0  0  0  0  0  0  0  0
   -7.2060   31.1950  -31.2360 H   0  0  0  0  0  0  0  0  0  0  0  0
   -6.2150   30.9530  -31.0690 N   0  0  0  0  0  0  0  0  0  0  0  0
   -5.4480   32.0430  -30.4080 C   0  0  0  0  0  0  0  0  0  0  0  0
   -5.8100   32.9940  -30.8910 H   0  0  0  0  0  0  0  0  0  0  0  0
   -4.3570   31.9080  -30.6350 H   0  0  0  0  0  0  0  0  0  0  0  0
   -5.6580   32.1300  -28.8950 C   0  0  0  0  0  0  0  0  0  0  0  0
   -5.1070   33.0190  -28.5030 H   0  0  0  0  0  0  0  0  0  0  0  0
   -6.7360   32.2620  -28.6590 H   0  0  0  0  0  0  0  0  0  0  0  0
   -5.2730   31.2260  -28.3790 H   0  0  0  0  0  0  0  0  0  0  0  0
  1  2  2  0  0  0  0
  1  5  1  0  0  0  0
  1  8  1  0  0  0  0
  2  3  1  0  0  0  0
  2 11  1  0  0  0  0
  3  9  2  0  0  0  0
  3 21  1  0  0  0  0
  4  6  1  0  0  0  0
  4 13  1  0  0  0  0
  4 16  2  0  0  0  0
  5 12  2  0  0  0  0
  5 13  1  0  0  0  0
  6  7  2  0  0  0  0
  6 22  1  0  0  0  0
  7 14  1  0  0  0  0
  7 23  1  0  0  0  0
  8 10  2  0  0  0  0
  8 20  1  0  0  0  0
  9 10  1  0  0  0  0
  9 24  1  0  0  0  0
 10 25  1  0  0  0  0
 13 26  1  0  0  0  0
 14 15  2  0  0  0  0
 15 16  1  0  0  0  0
 15 17  1  0  0  0  0
 16 27  1  0  0  0  0
 17 18  1  0  0  0  0
 17 28  1  0  0  0  0
 18 19  2  0  0  0  0
 18 30  1  0  0  0  0
 29 30  1  0  0  0  0
 30 31  1  0  0  0  0
 31 32  1  0  0  0  0
 31 33  1  0  0  0  0
 31 34  1  0  0  0  0
 34 35  1  0  0  0  0
 34 36  1  0  0  0  0
 34 37  1  0  0  0  0
M  END
$$$$
