ejm_42
 OpenBabel02232411173D
Structure written by MMmdl.
 35 36  0  0  0  0  0  0  0  0999 V2000
   -1.5530   21.5160  -27.5940 C   0  0  0  0  0  0  0  0  0  0  0  0
   -1.0740   22.5950  -28.3400 C   0  0  0  0  0  0  0  0  0  0  0  0
   -1.8770   23.1430  -29.3440 C   0  0  0  0  0  0  0  0  0  0  0  0
   -3.1490   22.6350  -29.6340 C   0  0  0  0  0  0  0  0  0  0  0  0
   -3.6080   21.5580  -28.8590 C   0  0  0  0  0  0  0  0  0  0  0  0
   -2.8270   20.9990  -27.8470 C   0  0  0  0  0  0  0  0  0  0  0  0
   -5.1630   20.9080  -29.1680 Cl  0  0  0  0  0  0  0  0  0  0  0  0
   -4.0150   23.1380  -30.7530 C   0  0  0  0  0  0  0  0  0  0  0  0
   -4.4190   22.4160  -31.6380 O   0  0  0  0  0  0  0  0  0  0  0  0
   -4.3340   24.5080  -30.6470 N   0  0  0  0  0  0  0  0  0  0  0  0
   -5.1820   25.2520  -31.5150 C   0  0  0  0  0  0  0  0  0  0  0  0
   -5.8540   24.6930  -32.6140 C   0  0  0  0  0  0  0  0  0  0  0  0
   -6.7070   25.5190  -33.3610 C   0  0  0  0  0  0  0  0  0  0  0  0
   -6.9040   26.8340  -33.0900 N   0  0  0  0  0  0  0  0  0  0  0  0
   -6.2220   27.3740  -32.0170 C   0  0  0  0  0  0  0  0  0  0  0  0
   -5.3560   26.6180  -31.2130 C   0  0  0  0  0  0  0  0  0  0  0  0
   -6.4810   28.7550  -31.7920 N   0  0  0  0  0  0  0  0  0  0  0  0
   -5.7240   29.6240  -30.9600 C   0  0  0  0  0  0  0  0  0  0  0  0
   -4.8180   29.1940  -30.2710 O   0  0  0  0  0  0  0  0  0  0  0  0
   -6.1490   31.0760  -31.0030 C   0  0  0  0  0  0  0  0  0  0  0  0
   -1.2580   24.4830  -30.2150 Cl  0  0  0  0  0  0  0  0  0  0  0  0
   -6.8600   31.2960  -31.8400 H   0  0  0  0  0  0  0  0  0  0  0  0
   -0.9300   21.0800  -26.8060 H   0  0  0  0  0  0  0  0  0  0  0  0
   -0.0830   23.0040  -28.1230 H   0  0  0  0  0  0  0  0  0  0  0  0
   -3.1940   20.1690  -27.2410 H   0  0  0  0  0  0  0  0  0  0  0  0
   -3.9280   25.0350  -29.8520 H   0  0  0  0  0  0  0  0  0  0  0  0
   -5.7460   23.6400  -32.8860 H   0  0  0  0  0  0  0  0  0  0  0  0
   -7.2680   25.1120  -34.2190 H   0  0  0  0  0  0  0  0  0  0  0  0
   -4.8270   27.0800  -30.3730 H   0  0  0  0  0  0  0  0  0  0  0  0
   -7.3520   29.1290  -32.2280 H   0  0  0  0  0  0  0  0  0  0  0  0
   -4.9230   31.9810  -31.1310 C   0  0  0  0  0  0  0  0  0  0  0  0
   -6.6870   31.3340  -30.0550 H   0  0  0  0  0  0  0  0  0  0  0  0
   -5.2680   33.0380  -31.2420 H   0  0  0  0  0  0  0  0  0  0  0  0
   -4.2830   31.9130  -30.2210 H   0  0  0  0  0  0  0  0  0  0  0  0
   -4.3180   31.7080  -32.0220 H   0  0  0  0  0  0  0  0  0  0  0  0
  1  2  2  0  0  0  0
  1  6  1  0  0  0  0
  1 23  1  0  0  0  0
  2  3  1  0  0  0  0
  2 24  1  0  0  0  0
  3  4  2  0  0  0  0
  3 21  1  0  0  0  0
  4  5  1  0  0  0  0
  4  8  1  0  0  0  0
  5  6  2  0  0  0  0
  5  7  1  0  0  0  0
  6 25  1  0  0  0  0
  8  9  2  0  0  0  0
  8 10  1  0  0  0  0
 10 11  1  0  0  0  0
 10 26  1  0  0  0  0
 11 12  2  0  0  0  0
 11 16  1  0  0  0  0
 12 13  1  0  0  0  0
 12 27  1  0  0  0  0
 13 14  2  0  0  0  0
 13 28  1  0  0  0  0
 14 15  1  0  0  0  0
 15 16  2  0  0  0  0
 15 17  1  0  0  0  0
 16 29  1  0  0  0  0
 17 18  1  0  0  0  0
 17 30  1  0  0  0  0
 18 19  2  0  0  0  0
 18 20  1  0  0  0  0
 20 22  1  0  0  0  0
 20 31  1  0  0  0  0
 20 32  1  0  0  0  0
 31 33  1  0  0  0  0
 31 34  1  0  0  0  0
 31 35  1  0  0  0  0
M  END
$$$$
