20667(2qbp)
 OpenBabel02232411173D
Structure written by MMmdl.
 60 63  0  0  0  0  0  0  0  0999 V2000
   42.4090   18.0010   12.6120 O   0  0  0  0  0  0  0  0  0  0  0  0
   41.2710   17.7010   12.9880 C   0  0  0  0  0  0  0  0  0  0  0  0
   40.2210   18.3420   12.7660 O   0  5  0  0  0  0  0  0  0  0  0  0
   41.0790   16.3900   13.8090 C   0  0  0  0  0  0  0  0  0  0  0  0
   42.4490   15.8770   13.8440 O   0  0  0  0  0  0  0  0  0  0  0  0
   42.6870   14.9640   14.8210 C   0  0  0  0  0  0  0  0  0  0  0  0
   42.1110   13.6370   14.8400 C   0  0  0  0  0  0  0  0  0  0  0  0
   40.9000   13.0630   13.4840 Br  0  0  0  0  0  0  0  0  0  0  0  0
   42.5460   12.8380   15.8650 C   0  0  0  0  0  0  0  0  0  0  0  0
   42.1310   11.4910   16.2030 C   0  0  0  0  0  0  0  0  0  0  0  0
   43.0060   10.5350   16.7680 C   0  0  0  0  0  0  0  0  0  0  0  0
   42.5610    9.2340   16.9800 C   0  0  0  0  0  0  0  0  0  0  0  0
   41.2790    8.8150   16.5890 C   0  0  0  0  0  0  0  0  0  0  0  0
   40.4010    9.7590   16.0420 C   0  0  0  0  0  0  0  0  0  0  0  0
   39.0440    9.5060   15.6610 N   0  0  0  0  0  0  0  0  0  0  0  0
   38.5600    8.1380   15.3400 C   0  0  0  0  0  0  0  0  0  0  0  0
   37.0500    8.1200   15.6960 C   0  0  0  0  0  0  0  0  0  0  0  0
   36.4150    6.7770   15.3010 C   0  0  0  0  0  0  0  0  0  0  0  0
   36.5930    6.5660   13.8300 N   0  0  0  0  0  0  0  0  0  0  0  0
   35.4530    5.5610   13.0700 S   0  0  0  0  0  0  0  0  0  0  0  0
   35.4070    5.9350   11.6470 O   0  0  0  0  0  0  0  0  0  0  0  0
   34.1760    5.7410   13.7530 O   0  0  0  0  0  0  0  0  0  0  0  0
   35.9320    3.8840   13.3240 C   0  0  0  0  0  0  0  0  0  0  0  0
   36.6970    3.2290   12.2250 C   0  0  0  0  0  0  0  0  0  0  0  0
   38.0260    2.8330   12.4430 C   0  0  0  0  0  0  0  0  0  0  0  0
   38.7060    2.0930   11.4730 C   0  0  0  0  0  0  0  0  0  0  0  0
   38.0830    1.7780   10.2620 C   0  0  0  0  0  0  0  0  0  0  0  0
   36.7720    2.2040   10.0280 C   0  0  0  0  0  0  0  0  0  0  0  0
   36.0720    2.9120   11.0070 C   0  0  0  0  0  0  0  0  0  0  0  0
   38.0410    6.4670   13.4760 C   0  0  0  0  0  0  0  0  0  0  0  0
   38.7530    7.7850   13.8380 C   0  0  0  0  0  0  0  0  0  0  0  0
   40.8150   11.1050   15.9260 C   0  0  0  0  0  0  0  0  0  0  0  0
   43.7400   13.7190   16.7830 S   0  0  0  0  0  0  0  0  0  0  0  0
   43.6060   15.1710   15.8190 C   0  0  0  0  0  0  0  0  0  0  0  0
   44.4300   16.4100   16.1730 C   0  0  0  0  0  0  0  0  0  0  0  0
   45.1330   16.2950   17.2030 O   0  0  0  0  0  0  0  0  0  0  0  0
   44.3770   17.3940   15.4370 O   0  5  0  0  0  0  0  0  0  0  0  0
   40.4280   15.6720   13.2700 H   0  0  0  0  0  0  0  0  0  0  0  0
   40.6940   16.5760   14.8320 H   0  0  0  0  0  0  0  0  0  0  0  0
   44.0310   10.7930   17.0370 H   0  0  0  0  0  0  0  0  0  0  0  0
   43.2240    8.5000   17.4420 H   0  0  0  0  0  0  0  0  0  0  0  0
   40.9980    7.7720   16.7140 H   0  0  0  0  0  0  0  0  0  0  0  0
   38.7110   10.1700   14.9250 H   0  0  0  0  0  0  0  0  0  0  0  0
   39.0840    7.3690   15.9630 H   0  0  0  0  0  0  0  0  0  0  0  0
   36.9270    8.2560   16.7960 H   0  0  0  0  0  0  0  0  0  0  0  0
   36.5260    8.9410   15.1560 H   0  0  0  0  0  0  0  0  0  0  0  0
   36.9010    5.9430   15.8830 H   0  0  0  0  0  0  0  0  0  0  0  0
   35.3230    6.8010   15.5510 H   0  0  0  0  0  0  0  0  0  0  0  0
   36.5160    3.8010   14.2910 H   0  0  0  0  0  0  0  0  0  0  0  0
   35.0110    3.2570   13.5240 H   0  0  0  0  0  0  0  0  0  0  0  0
   38.5320    3.0750   13.3830 H   0  0  0  0  0  0  0  0  0  0  0  0
   39.7230    1.7540   11.6790 H   0  0  0  0  0  0  0  0  0  0  0  0
   38.6100    1.1900    9.5100 H   0  0  0  0  0  0  0  0  0  0  0  0
   36.2860    1.9540    9.0830 H   0  0  0  0  0  0  0  0  0  0  0  0
   35.0320    3.1920   10.8310 H   0  0  0  0  0  0  0  0  0  0  0  0
   38.5290    5.6210   14.0400 H   0  0  0  0  0  0  0  0  0  0  0  0
   38.1460    6.2780   12.3800 H   0  0  0  0  0  0  0  0  0  0  0  0
   38.3440    8.6100   13.2110 H   0  0  0  0  0  0  0  0  0  0  0  0
   39.8420    7.6610   13.6320 H   0  0  0  0  0  0  0  0  0  0  0  0
   40.0700   11.8430   15.6190 H   0  0  0  0  0  0  0  0  0  0  0  0
  1  2  2  0  0  0  0
  2  3  1  0  0  0  0
  2  4  1  0  0  0  0
  4  5  1  0  0  0  0
  4 38  1  0  0  0  0
  4 39  1  0  0  0  0
  5  6  1  0  0  0  0
  6 34  2  0  0  0  0
  6  7  1  0  0  0  0
  7  8  1  0  0  0  0
  7  9  2  0  0  0  0
  9 10  1  0  0  0  0
  9 33  1  0  0  0  0
 10 32  2  0  0  0  0
 10 11  1  0  0  0  0
 11 12  2  0  0  0  0
 11 40  1  0  0  0  0
 12 13  1  0  0  0  0
 12 41  1  0  0  0  0
 13 14  2  0  0  0  0
 13 42  1  0  0  0  0
 14 15  1  0  0  0  0
 14 32  1  0  0  0  0
 15 16  1  0  0  0  0
 15 43  1  0  0  0  0
 16 31  1  0  0  0  0
 16 17  1  0  0  0  0
 16 44  1  0  0  0  0
 17 18  1  0  0  0  0
 17 45  1  0  0  0  0
 17 46  1  0  0  0  0
 18 19  1  0  0  0  0
 18 47  1  0  0  0  0
 18 48  1  0  0  0  0
 19 20  1  0  0  0  0
 19 30  1  0  0  0  0
 20 21  2  0  0  0  0
 20 22  2  0  0  0  0
 20 23  1  0  0  0  0
 23 24  1  0  0  0  0
 23 49  1  0  0  0  0
 23 50  1  0  0  0  0
 24 29  2  0  0  0  0
 24 25  1  0  0  0  0
 25 26  2  0  0  0  0
 25 51  1  0  0  0  0
 26 27  1  0  0  0  0
 26 52  1  0  0  0  0
 27 28  2  0  0  0  0
 27 53  1  0  0  0  0
 28 29  1  0  0  0  0
 28 54  1  0  0  0  0
 29 55  1  0  0  0  0
 30 31  1  0  0  0  0
 30 56  1  0  0  0  0
 30 57  1  0  0  0  0
 31 58  1  0  0  0  0
 31 59  1  0  0  0  0
 32 60  1  0  0  0  0
 33 34  1  0  0  0  0
 34 35  1  0  0  0  0
 35 36  2  0  0  0  0
 35 37  1  0  0  0  0
M  CHG  2   3  -1  37  -1
M  END
$$$$
