3b
 OpenBabel02232411173D

 58 60  0  0  1  0  0  0  0  0999 V2000
   18.1930  -13.3750   21.7250 N   0  0  0  0  0  0  0  0  0  0  0  0
   17.7480  -12.2100   20.9040 C   0  0  2  0  0  0  0  0  0  0  0  0
   17.3850  -13.9040   22.7010 C   0  0  0  0  0  0  0  0  0  0  0  0
   16.3120  -13.3870   23.0020 O   0  0  0  0  0  0  0  0  0  0  0  0
   16.4830  -12.5740   20.0830 C   0  0  0  0  0  0  0  0  0  0  0  0
   16.0400  -13.7070   19.9860 O   0  0  0  0  0  0  0  0  0  0  0  0
   18.9340  -11.8700   19.9800 C   0  0  0  0  0  0  0  0  0  0  0  0
   17.8840  -15.1840   23.4390 C   0  0  2  0  0  0  0  0  0  0  0  0
   15.9210  -11.5020   19.3910 N   0  0  0  0  0  0  0  0  0  0  0  0
   20.0130  -12.9480   20.1800 C   0  0  0  0  0  0  0  0  0  0  0  0
   16.6660  -16.0830   23.7180 N   0  3  0  0  0  0  0  0  0  0  0  0
   18.5480  -14.8560   24.7900 C   0  0  0  0  0  0  0  0  0  0  0  0
   14.5470  -11.6260   18.8190 C   0  0  0  0  0  0  0  0  0  0  0  0
   19.4990  -13.9270   21.2530 C   0  0  0  0  0  0  0  0  0  0  0  0
   20.0110  -14.5120   24.6580 C   0  0  0  0  0  0  0  0  0  0  0  0
   13.5240  -11.6720   19.9330 C   0  0  0  0  0  0  0  0  0  0  0  0
   20.4750  -13.2460   25.0330 C   0  0  0  0  0  0  0  0  0  0  0  0
   13.3930  -10.5650   20.7800 C   0  0  0  0  0  0  0  0  0  0  0  0
   21.8380  -12.9490   24.9450 C   0  0  0  0  0  0  0  0  0  0  0  0
   12.5160  -10.6020   21.8780 C   0  0  0  0  0  0  0  0  0  0  0  0
   22.7490  -13.9140   24.5090 C   0  0  0  0  0  0  0  0  0  0  0  0
   11.7700  -11.7660   22.1100 C   0  0  0  0  0  0  0  0  0  0  0  0
   22.2870  -15.1840   24.1420 C   0  0  0  0  0  0  0  0  0  0  0  0
   11.8990  -12.8660   21.2580 C   0  0  0  0  0  0  0  0  0  0  0  0
   20.9240  -15.4820   24.2120 C   0  0  0  0  0  0  0  0  0  0  0  0
   12.7610  -12.8240   20.1600 C   0  0  0  0  0  0  0  0  0  0  0  0
   17.5240  -11.3460   21.5900 H   0  0  0  0  0  0  0  0  0  0  0  0
   18.6220  -11.8380   18.9100 H   0  0  0  0  0  0  0  0  0  0  0  0
   19.3290  -10.8680   20.2630 H   0  0  0  0  0  0  0  0  0  0  0  0
   18.5870  -15.8010   22.8060 H   0  0  0  0  0  0  0  0  0  0  0  0
   16.2100  -10.5420   19.6240 H   0  0  0  0  0  0  0  0  0  0  0  0
   20.2020  -13.4980   19.2270 H   0  0  0  0  0  0  0  0  0  0  0  0
   20.9690  -12.4810   20.5110 H   0  0  0  0  0  0  0  0  0  0  0  0
   17.0010  -16.9970   24.1470 H   0  0  0  0  0  0  0  0  0  0  0  0
   16.0120  -15.5870   24.4060 H   0  0  0  0  0  0  0  0  0  0  0  0
   16.1560  -16.3110   22.8210 H   0  0  0  0  0  0  0  0  0  0  0  0
   17.9910  -14.0270   25.2950 H   0  0  0  0  0  0  0  0  0  0  0  0
   18.4890  -15.7580   25.4630 H   0  0  0  0  0  0  0  0  0  0  0  0
   14.3800  -10.7260   18.1670 H   0  0  0  0  0  0  0  0  0  0  0  0
   14.5090  -12.5470   18.1770 H   0  0  0  0  0  0  0  0  0  0  0  0
   20.2110  -13.9820   22.1160 H   0  0  0  0  0  0  0  0  0  0  0  0
   19.3550  -14.9490   20.8160 H   0  0  0  0  0  0  0  0  0  0  0  0
   19.7790  -12.4950   25.4040 H   0  0  0  0  0  0  0  0  0  0  0  0
   13.9820   -9.6640   20.5850 H   0  0  0  0  0  0  0  0  0  0  0  0
   22.1730  -11.9500   25.2170 H   0  0  0  0  0  0  0  0  0  0  0  0
   23.8180  -13.6890   24.4660 H   0  0  0  0  0  0  0  0  0  0  0  0
   22.9840  -15.9560   23.8020 H   0  0  0  0  0  0  0  0  0  0  0  0
   11.3270  -13.7740   21.4630 H   0  0  0  0  0  0  0  0  0  0  0  0
   20.5680  -16.4750   23.9270 H   0  0  0  0  0  0  0  0  0  0  0  0
   12.8390  -13.6880   19.4960 H   0  0  0  0  0  0  0  0  0  0  0  0
   11.0750  -11.8290   22.9520 H   0  0  0  0  0  0  0  0  0  0  0  0
   12.4110   -9.3630   22.7280 C   0  0  0  0  0  0  0  0  0  0  0  0
   13.4440   -8.9750   22.9280 H   0  0  0  0  0  0  0  0  0  0  0  0
   11.8650   -8.6020   22.1170 H   0  0  0  0  0  0  0  0  0  0  0  0
   11.6980   -9.5250   24.0680 C   0  0  0  0  0  0  0  0  0  0  0  0
   10.6230   -9.7790   23.9250 H   0  0  0  0  0  0  0  0  0  0  0  0
   11.7640   -8.5710   24.6370 H   0  0  0  0  0  0  0  0  0  0  0  0
   12.1760  -10.3260   24.6710 H   0  0  0  0  0  0  0  0  0  0  0  0
  1  2  1  0  0  0  0
  1 14  1  0  0  0  0
  1  3  1  0  0  0  0
  2  5  1  0  0  0  0
  2  7  1  0  0  0  0
  2 27  1  1  0  0  0
  3  8  1  0  0  0  0
  3  4  2  0  0  0  0
  5  6  2  0  0  0  0
  5  9  1  0  0  0  0
  7 10  1  0  0  0  0
  7 28  1  0  0  0  0
  7 29  1  0  0  0  0
  8 11  1  0  0  0  0
  8 12  1  0  0  0  0
  8 30  1  6  0  0  0
  9 13  1  0  0  0  0
  9 31  1  0  0  0  0
 10 14  1  0  0  0  0
 10 32  1  0  0  0  0
 10 33  1  0  0  0  0
 11 34  1  0  0  0  0
 11 35  1  0  0  0  0
 11 36  1  0  0  0  0
 12 15  1  0  0  0  0
 12 37  1  0  0  0  0
 12 38  1  0  0  0  0
 13 16  1  0  0  0  0
 13 39  1  0  0  0  0
 13 40  1  0  0  0  0
 14 41  1  0  0  0  0
 14 42  1  0  0  0  0
 15 17  2  0  0  0  0
 15 25  1  0  0  0  0
 16 18  2  0  0  0  0
 16 26  1  0  0  0  0
 17 19  1  0  0  0  0
 17 43  1  0  0  0  0
 18 20  1  0  0  0  0
 18 44  1  0  0  0  0
 19 21  2  0  0  0  0
 19 45  1  0  0  0  0
 20 22  2  0  0  0  0
 20 52  1  0  0  0  0
 21 23  1  0  0  0  0
 21 46  1  0  0  0  0
 22 24  1  0  0  0  0
 22 51  1  0  0  0  0
 23 25  2  0  0  0  0
 23 47  1  0  0  0  0
 24 26  2  0  0  0  0
 24 48  1  0  0  0  0
 25 49  1  0  0  0  0
 26 50  1  0  0  0  0
 52 53  1  0  0  0  0
 52 54  1  0  0  0  0
 52 55  1  0  0  0  0
 55 56  1  0  0  0  0
 55 57  1  0  0  0  0
 55 58  1  0  0  0  0
M  CHG  1  11   1
M  END
$$$$
