p38a_2g
 OpenBabel02232411163D
Structure written by MMmdl.
 46 49  0  0  0  0  0  0  0  0999 V2000
   32.1680   39.5600   26.9930 C   0  0  0  0  0  0  0  0  0  0  0  0
   33.0590   40.3200   27.9850 C   0  0  0  0  0  0  0  0  0  0  0  0
   34.8860   38.7830   27.6950 C   0  0  0  0  0  0  0  0  0  0  0  0
   34.0750   37.8860   26.7600 C   0  0  0  0  0  0  0  0  0  0  0  0
   38.4450   36.5070   17.2440 C   0  0  0  0  0  0  0  0  0  0  0  0
   34.0210   39.4640   28.6350 O   0  0  0  0  0  0  0  0  0  0  0  0
   34.4780   35.0220   20.9270 C   0  0  0  0  0  0  0  0  0  0  0  0
   37.5250   36.0720   18.1930 C   0  0  0  0  0  0  0  0  0  0  0  0
   33.8590   38.9500   23.6930 C   0  0  0  0  0  0  0  0  0  0  0  0
   32.9590   38.6570   26.0250 C   0  0  0  0  0  0  0  0  0  0  0  0
   34.5990   37.8880   21.2540 C   0  0  0  0  0  0  0  0  0  0  0  0
   35.0070   37.3010   20.0080 C   0  0  0  0  0  0  0  0  0  0  0  0
   37.9970   36.7140   15.9320 C   0  0  0  0  0  0  0  0  0  0  0  0
   36.6630   36.4790   15.5880 C   0  0  0  0  0  0  0  0  0  0  0  0
   35.7410   36.0270   16.5400 C   0  0  0  0  0  0  0  0  0  0  0  0
   34.1450   37.0560   22.3210 C   0  0  0  0  0  0  0  0  0  0  0  0
   34.6310   39.2870   21.5020 C   0  0  0  0  0  0  0  0  0  0  0  0
   34.9610   35.9550   19.8760 C   0  0  0  0  0  0  0  0  0  0  0  0
   36.1820   35.8160   17.8470 C   0  0  0  0  0  0  0  0  0  0  0  0
   33.5910   34.8260   23.2840 C   0  0  0  0  0  0  0  0  0  0  0  0
   37.9020   35.8890   19.4550 F   0  0  0  0  0  0  0  0  0  0  0  0
   35.2980   35.2090   18.7470 O   0  0  0  0  0  0  0  0  0  0  0  0
   34.2860   39.8320   22.6780 N   0  0  0  0  0  0  0  0  0  0  0  0
   34.4060   33.8170   20.8210 O   0  0  0  0  0  0  0  0  0  0  0  0
   34.0750   35.6630   22.1510 N   0  0  0  0  0  0  0  0  0  0  0  0
   33.7750   37.5790   23.5340 N   0  0  0  0  0  0  0  0  0  0  0  0
   33.4960   39.4920   24.9020 N   0  0  0  0  0  0  0  0  0  0  0  0
   31.4530   38.9090   27.5550 H   0  0  0  0  0  0  0  0  0  0  0  0
   31.5690   40.3030   26.4090 H   0  0  0  0  0  0  0  0  0  0  0  0
   33.6090   41.1400   27.4730 H   0  0  0  0  0  0  0  0  0  0  0  0
   32.4630   40.7070   28.8430 H   0  0  0  0  0  0  0  0  0  0  0  0
   35.5380   38.1860   28.3710 H   0  0  0  0  0  0  0  0  0  0  0  0
   35.4650   39.5430   27.1240 H   0  0  0  0  0  0  0  0  0  0  0  0
   34.7600   37.3980   26.0240 H   0  0  0  0  0  0  0  0  0  0  0  0
   33.5860   37.0680   27.3490 H   0  0  0  0  0  0  0  0  0  0  0  0
   39.4840   36.7130   17.5110 H   0  0  0  0  0  0  0  0  0  0  0  0
   32.2430   37.9050   25.5770 H   0  0  0  0  0  0  0  0  0  0  0  0
   35.3490   37.9640   19.2110 H   0  0  0  0  0  0  0  0  0  0  0  0
   36.3220   36.6660   14.5690 H   0  0  0  0  0  0  0  0  0  0  0  0
   34.6980   35.8610   16.2580 H   0  0  0  0  0  0  0  0  0  0  0  0
   34.9470   39.9780   20.7030 H   0  0  0  0  0  0  0  0  0  0  0  0
   34.2400   34.9850   24.1870 H   0  0  0  0  0  0  0  0  0  0  0  0
   32.5380   35.1170   23.5510 H   0  0  0  0  0  0  0  0  0  0  0  0
   33.6100   33.7410   23.0030 H   0  0  0  0  0  0  0  0  0  0  0  0
   33.5840   40.5130   25.0590 H   0  0  0  0  0  0  0  0  0  0  0  0
   38.6900   37.0840   15.1780 H   0  0  0  0  0  0  0  0  0  0  0  0
  1  2  1  0  0  0  0
  1 10  1  0  0  0  0
  1 28  1  0  0  0  0
  1 29  1  0  0  0  0
  2  6  1  0  0  0  0
  2 30  1  0  0  0  0
  2 31  1  0  0  0  0
  3  4  1  0  0  0  0
  3  6  1  0  0  0  0
  3 32  1  0  0  0  0
  3 33  1  0  0  0  0
  4 10  1  0  0  0  0
  4 34  1  0  0  0  0
  4 35  1  0  0  0  0
  5  8  2  0  0  0  0
  5 13  1  0  0  0  0
  5 36  1  0  0  0  0
  7 18  1  0  0  0  0
  7 24  2  0  0  0  0
  7 25  1  0  0  0  0
  8 19  1  0  0  0  0
  8 21  1  0  0  0  0
  9 23  2  0  0  0  0
  9 26  1  0  0  0  0
  9 27  1  0  0  0  0
 10 27  1  0  0  0  0
 10 37  1  0  0  0  0
 11 12  1  0  0  0  0
 11 16  1  0  0  0  0
 11 17  2  0  0  0  0
 12 18  2  0  0  0  0
 12 38  1  0  0  0  0
 13 14  2  0  0  0  0
 13 46  1  0  0  0  0
 14 15  1  0  0  0  0
 14 39  1  0  0  0  0
 15 19  2  0  0  0  0
 15 40  1  0  0  0  0
 16 25  1  0  0  0  0
 16 26  2  0  0  0  0
 17 23  1  0  0  0  0
 17 41  1  0  0  0  0
 18 22  1  0  0  0  0
 19 22  1  0  0  0  0
 20 25  1  0  0  0  0
 20 42  1  0  0  0  0
 20 43  1  0  0  0  0
 20 44  1  0  0  0  0
 27 45  1  0  0  0  0
M  END
$$$$
