18628-1_flip
                    3D
 Schrodinger Suite 2022-3.
 41 42  0  0  1  0  0  0  0  0999 V2000
   25.3350    5.4330   28.9700 C   0  0  0  0  0  0  0  0  0  0  0  0
   23.9970    5.1670   29.2570 C   0  0  0  0  0  0  0  0  0  0  0  0
   23.6400    4.2590   30.2700 C   0  0  0  0  0  0  0  0  0  0  0  0
   24.6560    3.6160   31.0090 C   0  0  0  0  0  0  0  0  0  0  0  0
   26.0020    3.8800   30.6950 C   0  0  0  0  0  0  0  0  0  0  0  0
   26.3430    4.7780   29.6850 C   0  0  0  0  0  0  0  0  0  0  0  0
   22.1790    3.9930   30.5140 C   0  0  0  0  0  0  0  0  0  0  0  0
   21.3600    5.1040   31.1470 C   0  0  0  0  0  0  0  0  0  0  0  0
   22.0100    6.3420   31.3570 N   0  0  0  0  0  0  0  0  0  0  0  0
   21.3760    7.5500   31.7460 C   0  0  0  0  0  0  0  0  0  0  0  0
   20.1900    4.9450   31.4410 O   0  0  0  0  0  0  0  0  0  0  0  0
   22.1080    8.6640   31.3670 N   0  0  0  0  0  0  0  0  0  0  0  0
   21.5980    9.8800   31.6720 C   0  0  0  0  0  0  0  0  0  0  0  0
   20.3840   10.0900   32.3930 C   0  0  0  0  0  0  0  0  0  0  0  0
   19.6590    8.9180   32.7810 C   0  0  0  0  0  0  0  0  0  0  0  0
   20.1720    7.6390   32.4360 C   0  0  0  0  0  0  0  0  0  0  0  0
   18.4760    9.0090   33.4680 N   0  0  0  0  0  0  0  0  0  0  0  0
   19.9600   11.4090   32.6630 C   0  0  0  0  0  0  0  0  0  0  0  0
   22.2420   10.9990   31.2750 O   0  0  0  0  0  0  0  0  0  0  0  0
   23.5240   10.8900   30.5490 C   0  0  0  0  0  0  0  0  0  0  0  0
   23.2870   10.5620   29.0900 C   0  0  0  0  0  0  0  0  0  0  0  0
   19.6620   12.5150   32.8490 N   0  0  0  0  0  0  0  0  0  0  0  0
   25.6050    6.1630   28.2040 H   0  0  0  0  0  0  0  0  0  0  0  0
   24.3560    2.6730   32.1300 C   0  0  0  0  0  0  0  0  0  0  0  0
   19.6110    6.7440   32.7100 H   0  0  0  0  0  0  0  0  0  0  0  0
   22.0590    3.0830   31.1660 H   0  0  0  0  0  0  0  0  0  0  0  0
   21.6920    3.7560   29.5270 H   0  0  0  0  0  0  0  0  0  0  0  0
   22.9960    6.4490   31.0510 H   0  0  0  0  0  0  0  0  0  0  0  0
   17.9750    8.1560   33.7850 H   0  0  0  0  0  0  0  0  0  0  0  0
   18.0740    9.9120   33.7200 H   0  0  0  0  0  0  0  0  0  0  0  0
   24.1750   10.1410   31.0520 H   0  0  0  0  0  0  0  0  0  0  0  0
   23.8940   11.9350   30.6910 H   0  0  0  0  0  0  0  0  0  0  0  0
   24.2470   10.6790   28.5280 H   0  0  0  0  0  0  0  0  0  0  0  0
   22.9390    9.5100   28.9620 H   0  0  0  0  0  0  0  0  0  0  0  0
   22.5360   11.2470   28.6360 H   0  0  0  0  0  0  0  0  0  0  0  0
   27.3950    4.9750   29.4590 H   0  0  0  0  0  0  0  0  0  0  0  0
   26.7980    3.3780   31.2540 H   0  0  0  0  0  0  0  0  0  0  0  0
   25.2940    2.2920   32.6080 H   0  0  0  0  0  0  0  0  0  0  0  0
   23.7650    3.1880   32.9230 H   0  0  0  0  0  0  0  0  0  0  0  0
   23.7940    1.7800   31.7610 H   0  0  0  0  0  0  0  0  0  0  0  0
   23.2200    5.6940   28.7000 H   0  0  0  0  0  0  0  0  0  0  0  0
  1  2  1  0  0  0  0
  1  6  2  0  0  0  0
  1 23  1  0  0  0  0
  2  3  2  0  0  0  0
  2 41  1  0  0  0  0
  3  4  1  0  0  0  0
  3  7  1  0  0  0  0
  4  5  2  0  0  0  0
  4 24  1  0  0  0  0
  5  6  1  0  0  0  0
  5 37  1  0  0  0  0
  6 36  1  0  0  0  0
  7  8  1  0  0  0  0
  7 26  1  0  0  0  0
  7 27  1  0  0  0  0
  8  9  1  0  0  0  0
  8 11  2  0  0  0  0
  9 10  1  0  0  0  0
  9 28  1  0  0  0  0
 10 12  1  0  0  0  0
 10 16  2  0  0  0  0
 12 13  2  0  0  0  0
 13 14  1  0  0  0  0
 13 19  1  0  0  0  0
 14 15  2  0  0  0  0
 14 18  1  0  0  0  0
 15 16  1  0  0  0  0
 15 17  1  0  0  0  0
 16 25  1  0  0  0  0
 17 29  1  0  0  0  0
 17 30  1  0  0  0  0
 18 22  3  0  0  0  0
 19 20  1  0  0  0  0
 20 21  1  0  0  0  0
 20 31  1  0  0  0  0
 20 32  1  0  0  0  0
 21 33  1  0  0  0  0
 21 34  1  0  0  0  0
 21 35  1  0  0  0  0
 24 38  1  0  0  0  0
 24 39  1  0  0  0  0
 24 40  1  0  0  0  0
M  END
$$$$
