p38a_3fln
 OpenBabel02232411163D
Structure written by MMmdl.
 46 49  0  0  0  0  0  0  0  0999 V2000
   34.0400   38.3970   26.8210 C   0  0  0  0  0  0  0  0  0  0  0  0
   33.4570   37.8990   28.1500 C   0  0  0  0  0  0  0  0  0  0  0  0
   31.1880   38.1290   27.3420 C   0  0  0  0  0  0  0  0  0  0  0  0
   31.6650   38.6480   25.9780 C   0  0  0  0  0  0  0  0  0  0  0  0
   38.2820   36.5280   17.1870 C   0  0  0  0  0  0  0  0  0  0  0  0
   32.1690   37.2690   27.9640 O   0  0  0  0  0  0  0  0  0  0  0  0
   34.5020   35.1010   21.2500 C   0  0  0  0  0  0  0  0  0  0  0  0
   37.5000   36.0730   18.2460 C   0  0  0  0  0  0  0  0  0  0  0  0
   33.8720   39.2170   23.7160 C   0  0  0  0  0  0  0  0  0  0  0  0
   33.0300   39.3440   26.1450 C   0  0  0  0  0  0  0  0  0  0  0  0
   34.6130   37.9750   21.3640 C   0  0  0  0  0  0  0  0  0  0  0  0
   35.0450   37.3010   20.1720 C   0  0  0  0  0  0  0  0  0  0  0  0
   37.6360   36.6680   15.9510 C   0  0  0  0  0  0  0  0  0  0  0  0
   36.2920   36.3480   15.7440 C   0  0  0  0  0  0  0  0  0  0  0  0
   35.5320   35.8810   16.8220 C   0  0  0  0  0  0  0  0  0  0  0  0
   34.1870   37.2270   22.5010 C   0  0  0  0  0  0  0  0  0  0  0  0
   34.6040   39.3910   21.4880 C   0  0  0  0  0  0  0  0  0  0  0  0
   35.0180   35.9480   20.1430 C   0  0  0  0  0  0  0  0  0  0  0  0
   36.1420   35.7350   18.0700 C   0  0  0  0  0  0  0  0  0  0  0  0
   33.6880   35.0610   23.6370 C   0  0  0  0  0  0  0  0  0  0  0  0
   38.0320   35.9550   19.4550 F   0  0  0  0  0  0  0  0  0  0  0  0
   38.3300   37.1700   14.9330 F   0  0  0  0  0  0  0  0  0  0  0  0
   35.4250   35.1140   19.1030 O   0  0  0  0  0  0  0  0  0  0  0  0
   34.2570   40.0200   22.6170 N   0  0  0  0  0  0  0  0  0  0  0  0
   34.3750   33.8950   21.2140 O   0  0  0  0  0  0  0  0  0  0  0  0
   34.1360   35.8240   22.4380 N   0  0  0  0  0  0  0  0  0  0  0  0
   33.8170   37.8390   23.6750 N   0  0  0  0  0  0  0  0  0  0  0  0
   33.5470   39.9020   24.8610 N   0  0  0  0  0  0  0  0  0  0  0  0
   34.9980   38.9370   27.0140 H   0  0  0  0  0  0  0  0  0  0  0  0
   34.2560   37.5240   26.1570 H   0  0  0  0  0  0  0  0  0  0  0  0
   34.0680   37.0670   28.5720 H   0  0  0  0  0  0  0  0  0  0  0  0
   33.3490   38.7350   28.8790 H   0  0  0  0  0  0  0  0  0  0  0  0
   30.9600   38.9700   28.0340 H   0  0  0  0  0  0  0  0  0  0  0  0
   30.3160   37.4450   27.2320 H   0  0  0  0  0  0  0  0  0  0  0  0
   31.7540   37.7920   25.2660 H   0  0  0  0  0  0  0  0  0  0  0  0
   30.9170   39.3680   25.5690 H   0  0  0  0  0  0  0  0  0  0  0  0
   39.3330   36.8000   17.3200 H   0  0  0  0  0  0  0  0  0  0  0  0
   32.8930   40.2560   26.8020 H   0  0  0  0  0  0  0  0  0  0  0  0
   35.3900   37.9070   19.3320 H   0  0  0  0  0  0  0  0  0  0  0  0
   35.8240   36.4750   14.7660 H   0  0  0  0  0  0  0  0  0  0  0  0
   34.4710   35.6510   16.6790 H   0  0  0  0  0  0  0  0  0  0  0  0
   34.8830   40.0190   20.6260 H   0  0  0  0  0  0  0  0  0  0  0  0
   34.3660   35.2830   24.5050 H   0  0  0  0  0  0  0  0  0  0  0  0
   32.6420   35.3640   23.9130 H   0  0  0  0  0  0  0  0  0  0  0  0
   33.7090   33.9590   23.4260 H   0  0  0  0  0  0  0  0  0  0  0  0
   33.6360   40.9370   24.8660 H   0  0  0  0  0  0  0  0  0  0  0  0
  1  2  1  0  0  0  0
  1 10  1  0  0  0  0
  1 29  1  0  0  0  0
  1 30  1  0  0  0  0
  2  6  1  0  0  0  0
  2 31  1  0  0  0  0
  2 32  1  0  0  0  0
  3  4  1  0  0  0  0
  3  6  1  0  0  0  0
  3 33  1  0  0  0  0
  3 34  1  0  0  0  0
  4 10  1  0  0  0  0
  4 35  1  0  0  0  0
  4 36  1  0  0  0  0
  5  8  2  0  0  0  0
  5 13  1  0  0  0  0
  5 37  1  0  0  0  0
  7 18  1  0  0  0  0
  7 25  2  0  0  0  0
  7 26  1  0  0  0  0
  8 19  1  0  0  0  0
  8 21  1  0  0  0  0
  9 24  2  0  0  0  0
  9 27  1  0  0  0  0
  9 28  1  0  0  0  0
 10 28  1  0  0  0  0
 10 38  1  0  0  0  0
 11 12  1  0  0  0  0
 11 16  1  0  0  0  0
 11 17  2  0  0  0  0
 12 18  2  0  0  0  0
 12 39  1  0  0  0  0
 13 14  2  0  0  0  0
 13 22  1  0  0  0  0
 14 15  1  0  0  0  0
 14 40  1  0  0  0  0
 15 19  2  0  0  0  0
 15 41  1  0  0  0  0
 16 26  1  0  0  0  0
 16 27  2  0  0  0  0
 17 24  1  0  0  0  0
 17 42  1  0  0  0  0
 18 23  1  0  0  0  0
 19 23  1  0  0  0  0
 20 26  1  0  0  0  0
 20 43  1  0  0  0  0
 20 44  1  0  0  0  0
 20 45  1  0  0  0  0
 28 46  1  0  0  0  0
M  END
$$$$
