ejm_54
 OpenBabel02232411173D
Structure written by MMmdl.
 37 38  0  0  0  0  0  0  0  0999 V2000
   -1.5400   21.5240  -27.5900 C   0  0  0  0  0  0  0  0  0  0  0  0
   -1.0610   22.6030  -28.3370 C   0  0  0  0  0  0  0  0  0  0  0  0
   -1.8630   23.1510  -29.3400 C   0  0  0  0  0  0  0  0  0  0  0  0
   -3.1360   22.6450  -29.6290 C   0  0  0  0  0  0  0  0  0  0  0  0
   -3.5960   21.5680  -28.8540 C   0  0  0  0  0  0  0  0  0  0  0  0
   -2.8140   21.0070  -27.8430 C   0  0  0  0  0  0  0  0  0  0  0  0
   -5.1530   20.9210  -29.1620 Cl  0  0  0  0  0  0  0  0  0  0  0  0
   -4.0020   23.1480  -30.7480 C   0  0  0  0  0  0  0  0  0  0  0  0
   -4.4070   22.4230  -31.6310 O   0  0  0  0  0  0  0  0  0  0  0  0
   -4.3210   24.5180  -30.6460 N   0  0  0  0  0  0  0  0  0  0  0  0
   -5.1930   25.2510  -31.5010 C   0  0  0  0  0  0  0  0  0  0  0  0
   -5.8560   24.6850  -32.6020 C   0  0  0  0  0  0  0  0  0  0  0  0
   -6.7410   25.4920  -33.3320 C   0  0  0  0  0  0  0  0  0  0  0  0
   -6.9790   26.7950  -33.0420 N   0  0  0  0  0  0  0  0  0  0  0  0
   -6.3060   27.3410  -31.9670 C   0  0  0  0  0  0  0  0  0  0  0  0
   -5.4040   26.6080  -31.1800 C   0  0  0  0  0  0  0  0  0  0  0  0
   -6.6420   28.6930  -31.6900 N   0  0  0  0  0  0  0  0  0  0  0  0
   -5.7850   29.6290  -31.0310 C   0  0  0  0  0  0  0  0  0  0  0  0
   -4.7430   29.2820  -30.4960 O   0  0  0  0  0  0  0  0  0  0  0  0
   -1.2440   24.4910  -30.2120 Cl  0  0  0  0  0  0  0  0  0  0  0  0
   -0.9170   21.0860  -26.8030 H   0  0  0  0  0  0  0  0  0  0  0  0
   -0.0690   23.0100  -28.1200 H   0  0  0  0  0  0  0  0  0  0  0  0
   -3.1820   20.1780  -27.2370 H   0  0  0  0  0  0  0  0  0  0  0  0
   -3.9130   25.0480  -29.8540 H   0  0  0  0  0  0  0  0  0  0  0  0
   -5.7170   23.6400  -32.8870 H   0  0  0  0  0  0  0  0  0  0  0  0
   -7.2930   25.0770  -34.1920 H   0  0  0  0  0  0  0  0  0  0  0  0
   -4.8810   27.0800  -30.3440 H   0  0  0  0  0  0  0  0  0  0  0  0
   -7.5460   29.0330  -32.0850 H   0  0  0  0  0  0  0  0  0  0  0  0
   -5.4270   32.0600  -30.4920 C   0  0  0  0  0  0  0  0  0  0  0  0
   -4.3510   31.9360  -30.7820 H   0  0  0  0  0  0  0  0  0  0  0  0
   -5.8260   33.0080  -30.9540 H   0  0  0  0  0  0  0  0  0  0  0  0
   -5.5480   32.1470  -28.9700 C   0  0  0  0  0  0  0  0  0  0  0  0
   -6.2180   30.9620  -31.1080 N   0  0  0  0  0  0  0  0  0  0  0  0
   -7.2050   31.2070  -31.2780 H   0  0  0  0  0  0  0  0  0  0  0  0
   -6.6120   32.2450  -28.6650 H   0  0  0  0  0  0  0  0  0  0  0  0
   -5.1000   31.2570  -28.4770 H   0  0  0  0  0  0  0  0  0  0  0  0
   -5.0020   33.0550  -28.6150 H   0  0  0  0  0  0  0  0  0  0  0  0
  1  2  2  0  0  0  0
  1  6  1  0  0  0  0
  1 21  1  0  0  0  0
  2  3  1  0  0  0  0
  2 22  1  0  0  0  0
  3  4  2  0  0  0  0
  3 20  1  0  0  0  0
  4  5  1  0  0  0  0
  4  8  1  0  0  0  0
  5  6  2  0  0  0  0
  5  7  1  0  0  0  0
  6 23  1  0  0  0  0
  8  9  2  0  0  0  0
  8 10  1  0  0  0  0
 10 11  1  0  0  0  0
 10 24  1  0  0  0  0
 11 12  2  0  0  0  0
 11 16  1  0  0  0  0
 12 13  1  0  0  0  0
 12 25  1  0  0  0  0
 13 14  2  0  0  0  0
 13 26  1  0  0  0  0
 14 15  1  0  0  0  0
 15 16  2  0  0  0  0
 15 17  1  0  0  0  0
 16 27  1  0  0  0  0
 17 18  1  0  0  0  0
 17 28  1  0  0  0  0
 18 19  2  0  0  0  0
 18 33  1  0  0  0  0
 29 30  1  0  0  0  0
 29 31  1  0  0  0  0
 29 32  1  0  0  0  0
 29 33  1  0  0  0  0
 32 35  1  0  0  0  0
 32 36  1  0  0  0  0
 32 37  1  0  0  0  0
 33 34  1  0  0  0  0
M  END
$$$$
