31
 OpenBabel02232411153D
Structure written by MMmdl.
 50 53  0  0  0  0  0  0  0  0999 V2000
    2.0500   28.8100    6.8120 C   0  0  0  0  0  0  0  0  0  0  0  0
   -1.4860   31.3660    7.9020 C   0  0  0  0  0  0  0  0  0  0  0  0
    0.1290   25.9580    9.0000 C   0  0  0  0  0  0  0  0  0  0  0  0
   -0.7440   25.2440   10.0390 C   0  0  0  0  0  0  0  0  0  0  0  0
   -0.6270   23.7230    9.7920 C   0  0  0  0  0  0  0  0  0  0  0  0
   -1.3930   22.9260   10.8570 C   0  0  0  0  0  0  0  0  0  0  0  0
   -0.9420   23.2960   12.2790 C   0  0  0  0  0  0  0  0  0  0  0  0
   -1.0720   24.8070   12.5280 C   0  0  0  0  0  0  0  0  0  0  0  0
   -0.3100   25.6180   11.4690 C   0  0  0  0  0  0  0  0  0  0  0  0
    5.4330   25.7500    5.0250 C   0  0  0  0  0  0  0  0  0  0  0  0
    5.3090   24.7720    6.0180 C   0  0  0  0  0  0  0  0  0  0  0  0
    4.5610   25.0240    7.1640 C   0  0  0  0  0  0  0  0  0  0  0  0
    3.8760   26.2410    7.3100 C   0  0  0  0  0  0  0  0  0  0  0  0
    1.3560   27.8560    7.5460 N   0  0  0  0  0  0  0  0  0  0  0  0
    0.1420   28.1740    8.0700 C   0  0  0  0  0  0  0  0  0  0  0  0
   -0.5310   27.2770    8.8050 O   0  0  0  0  0  0  0  0  0  0  0  0
   -0.4110   29.4670    7.8650 C   0  0  0  0  0  0  0  0  0  0  0  0
   -1.5740   30.1000    8.3200 N   0  0  0  0  0  0  0  0  0  0  0  0
   -0.2690   31.6160    7.1730 N   0  0  0  0  0  0  0  0  0  0  0  0
    0.4120   30.4030    7.1170 C   0  0  0  0  0  0  0  0  0  0  0  0
    1.6170   30.0990    6.5370 N   0  0  0  0  0  0  0  0  0  0  0  0
    3.3150   28.4820    6.3260 N   0  0  0  0  0  0  0  0  0  0  0  0
    3.9470   27.1980    6.2870 C   0  0  0  0  0  0  0  0  0  0  0  0
    4.7620   26.9580    5.1550 C   0  0  0  0  0  0  0  0  0  0  0  0
   -2.2020   32.1620    8.0790 H   0  0  0  0  0  0  0  0  0  0  0  0
    1.1640   26.1300    9.3670 H   0  0  0  0  0  0  0  0  0  0  0  0
    0.1100   25.4580    8.0110 H   0  0  0  0  0  0  0  0  0  0  0  0
   -1.8100   25.5540    9.9050 H   0  0  0  0  0  0  0  0  0  0  0  0
   -1.0400   23.4800    8.7880 H   0  0  0  0  0  0  0  0  0  0  0  0
    0.4500   23.4250    9.8240 H   0  0  0  0  0  0  0  0  0  0  0  0
   -2.4800   23.1430   10.7590 H   0  0  0  0  0  0  0  0  0  0  0  0
   -1.2270   21.8360   10.6980 H   0  0  0  0  0  0  0  0  0  0  0  0
   -1.5680   22.7450   13.0180 H   0  0  0  0  0  0  0  0  0  0  0  0
    0.1210   22.9920   12.4160 H   0  0  0  0  0  0  0  0  0  0  0  0
   -2.1490   25.0920   12.5220 H   0  0  0  0  0  0  0  0  0  0  0  0
   -0.6540   25.0500   13.5320 H   0  0  0  0  0  0  0  0  0  0  0  0
    0.7820   25.4210   11.5940 H   0  0  0  0  0  0  0  0  0  0  0  0
   -0.4910   26.7030   11.6410 H   0  0  0  0  0  0  0  0  0  0  0  0
    6.0580   25.5770    4.1400 H   0  0  0  0  0  0  0  0  0  0  0  0
    4.4930   24.2880    7.9730 H   0  0  0  0  0  0  0  0  0  0  0  0
    3.2920   26.4260    8.2150 H   0  0  0  0  0  0  0  0  0  0  0  0
   -0.0220   32.5010    6.7070 H   0  0  0  0  0  0  0  0  0  0  0  0
    3.7520   29.1750    5.6660 H   0  0  0  0  0  0  0  0  0  0  0  0
    4.8830   27.7130    4.3820 H   0  0  0  0  0  0  0  0  0  0  0  0
    6.1340   23.2500    5.5730 S   0  3  1  0  0  0  0  0  0  0  0  0
    5.4010   22.1090    6.2410 O   0  5  0  0  0  0  0  0  0  0  0  0
    7.6840   23.5110    6.4920 C   0  0  0  0  0  0  0  0  0  0  0  0
    8.1590   24.4240    6.0470 H   0  0  0  0  0  0  0  0  0  0  0  0
    7.5320   23.6390    7.5730 H   0  0  0  0  0  0  0  0  0  0  0  0
    8.3550   22.6460    6.2770 H   0  0  0  0  0  0  0  0  0  0  0  0
  1 14  2  0  0  0  0
  1 21  1  0  0  0  0
  1 22  1  0  0  0  0
  2 18  2  0  0  0  0
  2 19  1  0  0  0  0
  2 25  1  0  0  0  0
  3  4  1  0  0  0  0
  3 16  1  0  0  0  0
  3 26  1  0  0  0  0
  3 27  1  0  0  0  0
  4  5  1  0  0  0  0
  4  9  1  0  0  0  0
  4 28  1  0  0  0  0
  5  6  1  0  0  0  0
  5 29  1  0  0  0  0
  5 30  1  0  0  0  0
  6  7  1  0  0  0  0
  6 31  1  0  0  0  0
  6 32  1  0  0  0  0
  7  8  1  0  0  0  0
  7 33  1  0  0  0  0
  7 34  1  0  0  0  0
  8  9  1  0  0  0  0
  8 35  1  0  0  0  0
  8 36  1  0  0  0  0
  9 37  1  0  0  0  0
  9 38  1  0  0  0  0
 10 11  2  0  0  0  0
 10 24  1  0  0  0  0
 10 39  1  0  0  0  0
 11 12  1  0  0  0  0
 11 45  1  0  0  0  0
 12 13  2  0  0  0  0
 12 40  1  0  0  0  0
 13 23  1  0  0  0  0
 13 41  1  0  0  0  0
 14 15  1  0  0  0  0
 15 16  1  0  0  0  0
 15 17  2  0  0  0  0
 17 18  1  0  0  0  0
 17 20  1  0  0  0  0
 19 20  1  0  0  0  0
 19 42  1  0  0  0  0
 20 21  2  0  0  0  0
 22 23  1  0  0  0  0
 22 43  1  0  0  0  0
 23 24  2  0  0  0  0
 24 44  1  0  0  0  0
 45 46  1  1  0  0  0
 45 47  1  0  0  0  0
 47 48  1  0  0  0  0
 47 49  1  0  0  0  0
 47 50  1  0  0  0  0
M  CHG  2  45   1  46  -1
M  END
$$$$
