p38a_2n
 OpenBabel02232411163D
Structure written by MMmdl.
 53 56  0  0  0  0  0  0  0  0999 V2000
   38.2880   36.5470   17.1360 C   0  0  0  0  0  0  0  0  0  0  0  0
   34.6150   35.0050   21.1570 C   0  0  0  0  0  0  0  0  0  0  0  0
   37.4800   36.0750   18.1660 C   0  0  0  0  0  0  0  0  0  0  0  0
   34.0790   39.0200   23.8020 C   0  0  0  0  0  0  0  0  0  0  0  0
   34.7020   37.8740   21.3750 C   0  0  0  0  0  0  0  0  0  0  0  0
   35.0490   37.2520   20.1260 C   0  0  0  0  0  0  0  0  0  0  0  0
   37.6690   36.7220   15.8900 C   0  0  0  0  0  0  0  0  0  0  0  0
   36.3270   36.4230   15.6470 C   0  0  0  0  0  0  0  0  0  0  0  0
   35.5390   35.9360   16.6960 C   0  0  0  0  0  0  0  0  0  0  0  0
   34.4140   37.0730   22.5200 C   0  0  0  0  0  0  0  0  0  0  0  0
   34.6510   39.2840   21.5430 C   0  0  0  0  0  0  0  0  0  0  0  0
   35.0380   35.9020   20.0490 C   0  0  0  0  0  0  0  0  0  0  0  0
   36.1220   35.7530   17.9520 C   0  0  0  0  0  0  0  0  0  0  0  0
   37.9840   35.9250   19.3850 F   0  0  0  0  0  0  0  0  0  0  0  0
   35.3690   35.1150   18.9460 O   0  0  0  0  0  0  0  0  0  0  0  0
   34.3560   39.8710   22.7130 N   0  0  0  0  0  0  0  0  0  0  0  0
   34.4440   33.8100   21.0670 O   0  0  0  0  0  0  0  0  0  0  0  0
   34.4280   35.6690   22.4230 N   0  0  0  0  0  0  0  0  0  0  0  0
   34.1220   37.6410   23.7330 N   0  0  0  0  0  0  0  0  0  0  0  0
   33.6770   39.6150   24.9760 N   0  0  0  0  0  0  0  0  0  0  0  0
   39.3380   36.8060   17.2990 H   0  0  0  0  0  0  0  0  0  0  0  0
   35.3190   37.8960   19.2860 H   0  0  0  0  0  0  0  0  0  0  0  0
   35.8800   36.5830   14.6640 H   0  0  0  0  0  0  0  0  0  0  0  0
   34.4800   35.7180   16.5260 H   0  0  0  0  0  0  0  0  0  0  0  0
   34.8570   39.9490   20.6870 H   0  0  0  0  0  0  0  0  0  0  0  0
   33.7610   40.6460   25.0820 H   0  0  0  0  0  0  0  0  0  0  0  0
   38.3880   37.2390   14.8970 F   0  0  0  0  0  0  0  0  0  0  0  0
   32.2920   38.8530   28.4500 C   0  0  0  0  0  0  0  0  0  0  0  0
   32.4100   39.5420   27.0850 C   0  0  0  0  0  0  0  0  0  0  0  0
   33.5060   38.8480   26.2460 C   0  0  0  0  0  0  0  0  0  0  0  0
   34.8340   38.7980   27.0330 C   0  0  0  0  0  0  0  0  0  0  0  0
   34.6010   38.1520   28.4040 C   0  0  0  0  0  0  0  0  0  0  0  0
   33.5600   38.8290   29.1450 O   0  0  0  0  0  0  0  0  0  0  0  0
   31.9200   37.8080   28.3370 H   0  0  0  0  0  0  0  0  0  0  0  0
   31.6510   39.4410   29.1460 H   0  0  0  0  0  0  0  0  0  0  0  0
   32.6660   40.6180   27.2290 H   0  0  0  0  0  0  0  0  0  0  0  0
   31.4330   39.4810   26.5490 H   0  0  0  0  0  0  0  0  0  0  0  0
   33.1740   37.8000   25.9990 H   0  0  0  0  0  0  0  0  0  0  0  0
   35.5830   38.1930   26.4660 H   0  0  0  0  0  0  0  0  0  0  0  0
   35.2380   39.8300   27.1600 H   0  0  0  0  0  0  0  0  0  0  0  0
   34.3250   37.0770   28.2940 H   0  0  0  0  0  0  0  0  0  0  0  0
   35.4870   38.2810   29.0680 H   0  0  0  0  0  0  0  0  0  0  0  0
   34.1460   34.8270   23.6330 C   0  0  0  0  0  0  0  0  0  0  0  0
   34.6130   33.8180   23.4680 H   0  0  0  0  0  0  0  0  0  0  0  0
   34.6260   35.3100   24.5310 H   0  0  0  0  0  0  0  0  0  0  0  0
   32.6380   34.6720   23.8800 C   0  0  0  0  0  0  0  0  0  0  0  0
   32.2320   35.6250   24.3120 H   0  0  0  0  0  0  0  0  0  0  0  0
   32.0970   34.4680   22.9260 H   0  0  0  0  0  0  0  0  0  0  0  0
   32.3410   33.5410   24.8760 C   0  0  0  0  0  0  0  0  0  0  0  0
   32.9930   33.6130   25.7780 H   0  0  0  0  0  0  0  0  0  0  0  0
   31.2630   33.5610   25.1680 H   0  0  0  0  0  0  0  0  0  0  0  0
   32.5010   32.2480   24.2650 O   0  0  0  0  0  0  0  0  0  0  0  0
   33.4800   31.9990   24.3080 H   0  0  0  0  0  0  0  0  0  0  0  0
  1  3  2  0  0  0  0
  1  7  1  0  0  0  0
  1 21  1  0  0  0  0
  2 12  1  0  0  0  0
  2 17  2  0  0  0  0
  2 18  1  0  0  0  0
  3 13  1  0  0  0  0
  3 14  1  0  0  0  0
  4 16  2  0  0  0  0
  4 19  1  0  0  0  0
  4 20  1  0  0  0  0
  5  6  1  0  0  0  0
  5 10  1  0  0  0  0
  5 11  2  0  0  0  0
  6 12  2  0  0  0  0
  6 22  1  0  0  0  0
  7  8  2  0  0  0  0
  7 27  1  0  0  0  0
  8  9  1  0  0  0  0
  8 23  1  0  0  0  0
  9 13  2  0  0  0  0
  9 24  1  0  0  0  0
 10 18  1  0  0  0  0
 10 19  2  0  0  0  0
 11 16  1  0  0  0  0
 11 25  1  0  0  0  0
 12 15  1  0  0  0  0
 13 15  1  0  0  0  0
 18 43  1  0  0  0  0
 20 26  1  0  0  0  0
 20 30  1  0  0  0  0
 28 29  1  0  0  0  0
 28 33  1  0  0  0  0
 28 34  1  0  0  0  0
 28 35  1  0  0  0  0
 29 30  1  0  0  0  0
 29 36  1  0  0  0  0
 29 37  1  0  0  0  0
 30 31  1  0  0  0  0
 30 38  1  0  0  0  0
 31 32  1  0  0  0  0
 31 39  1  0  0  0  0
 31 40  1  0  0  0  0
 32 33  1  0  0  0  0
 32 41  1  0  0  0  0
 32 42  1  0  0  0  0
 43 44  1  0  0  0  0
 43 45  1  0  0  0  0
 43 46  1  0  0  0  0
 46 47  1  0  0  0  0
 46 48  1  0  0  0  0
 46 49  1  0  0  0  0
 49 50  1  0  0  0  0
 49 51  1  0  0  0  0
 49 52  1  0  0  0  0
 52 53  1  0  0  0  0
M  END
$$$$
