18658-1
 OpenBabel02232411163D
Structure written by MMmdl.
 47 48  0  0  0  0  0  0  0  0999 V2000
   23.0340   12.2440   28.7770 O   0  0  0  0  0  0  0  0  0  0  0  0
   23.4120   10.9230   29.2290 C   0  0  0  0  0  0  0  0  0  0  0  0
   23.5460   11.0180   30.7460 C   0  0  0  0  0  0  0  0  0  0  0  0
   22.2350   11.1160   31.3960 O   0  0  0  0  0  0  0  0  0  0  0  0
   21.5490    9.9810   31.6730 C   0  0  0  0  0  0  0  0  0  0  0  0
   21.9970    8.7990   31.1970 N   0  0  0  0  0  0  0  0  0  0  0  0
   21.2420    7.6680   31.4820 C   0  0  0  0  0  0  0  0  0  0  0  0
   20.0840    7.7140   32.2520 C   0  0  0  0  0  0  0  0  0  0  0  0
   19.6240    8.9640   32.7470 C   0  0  0  0  0  0  0  0  0  0  0  0
   18.4760    9.0160   33.4960 N   0  0  0  0  0  0  0  0  0  0  0  0
   20.3610   10.1530   32.4420 C   0  0  0  0  0  0  0  0  0  0  0  0
   19.9710   11.4560   32.8190 C   0  0  0  0  0  0  0  0  0  0  0  0
   19.7040   12.5540   33.0810 N   0  0  0  0  0  0  0  0  0  0  0  0
   21.7950    6.5140   30.8880 N   0  0  0  0  0  0  0  0  0  0  0  0
   21.2280    5.2190   30.8530 C   0  0  0  0  0  0  0  0  0  0  0  0
   20.1640    4.9550   31.3700 O   0  0  0  0  0  0  0  0  0  0  0  0
   22.0510    4.2270   30.0430 C   0  0  0  0  0  0  0  0  0  0  0  0
   23.3970    3.9570   30.6490 C   0  0  0  0  0  0  0  0  0  0  0  0
   24.5050    4.8060   30.3590 C   0  0  0  0  0  0  0  0  0  0  0  0
   24.1840    5.8380   29.4810 O   0  0  0  0  0  0  0  0  0  0  0  0
   25.1530    6.9110   29.3350 C   0  0  0  0  0  0  0  0  0  0  0  0
   25.7650    4.5770   30.9000 C   0  0  0  0  0  0  0  0  0  0  0  0
   25.9600    3.4930   31.7680 C   0  0  0  0  0  0  0  0  0  0  0  0
   24.8820    2.6580   32.0580 C   0  0  0  0  0  0  0  0  0  0  0  0
   23.6020    2.8720   31.4900 C   0  0  0  0  0  0  0  0  0  0  0  0
   24.9050    1.5600   32.8940 O   0  0  0  0  0  0  0  0  0  0  0  0
   26.1600    1.2450   33.5490 C   0  0  0  0  0  0  0  0  0  0  0  0
   22.9150   12.1880   27.7720 H   0  0  0  0  0  0  0  0  0  0  0  0
   24.4030   10.6600   28.7750 H   0  0  0  0  0  0  0  0  0  0  0  0
   22.6260   10.1950   28.9200 H   0  0  0  0  0  0  0  0  0  0  0  0
   23.9870   11.9990   31.0530 H   0  0  0  0  0  0  0  0  0  0  0  0
   24.1210   10.1510   31.1510 H   0  0  0  0  0  0  0  0  0  0  0  0
   19.5130    6.8090   32.4670 H   0  0  0  0  0  0  0  0  0  0  0  0
   17.9750    8.1490   33.7700 H   0  0  0  0  0  0  0  0  0  0  0  0
   18.0990    9.9040   33.8290 H   0  0  0  0  0  0  0  0  0  0  0  0
   22.7120    6.6640   30.3960 H   0  0  0  0  0  0  0  0  0  0  0  0
   21.4760    3.2690   29.9570 H   0  0  0  0  0  0  0  0  0  0  0  0
   22.1940    4.6530   29.0110 H   0  0  0  0  0  0  0  0  0  0  0  0
   26.0420    6.5330   28.7860 H   0  0  0  0  0  0  0  0  0  0  0  0
   24.5830    7.6490   28.7280 H   0  0  0  0  0  0  0  0  0  0  0  0
   25.4250    7.3290   30.3280 H   0  0  0  0  0  0  0  0  0  0  0  0
   26.6180    5.2190   30.6650 H   0  0  0  0  0  0  0  0  0  0  0  0
   26.9560    3.3340   32.1870 H   0  0  0  0  0  0  0  0  0  0  0  0
   22.7970    2.1710   31.7240 H   0  0  0  0  0  0  0  0  0  0  0  0
   25.8840    0.3450   34.1490 H   0  0  0  0  0  0  0  0  0  0  0  0
   26.4740    2.0850   34.2050 H   0  0  0  0  0  0  0  0  0  0  0  0
   26.9370    0.9980   32.7930 H   0  0  0  0  0  0  0  0  0  0  0  0
  1  2  1  0  0  0  0
  1 28  1  0  0  0  0
  2  3  1  0  0  0  0
  2 29  1  0  0  0  0
  2 30  1  0  0  0  0
  3  4  1  0  0  0  0
  3 31  1  0  0  0  0
  3 32  1  0  0  0  0
  4  5  1  0  0  0  0
  5 11  2  0  0  0  0
  5  6  1  0  0  0  0
  6  7  2  0  0  0  0
  7  8  1  0  0  0  0
  7 14  1  0  0  0  0
  8  9  2  0  0  0  0
  8 33  1  0  0  0  0
  9 10  1  0  0  0  0
  9 11  1  0  0  0  0
 10 34  1  0  0  0  0
 10 35  1  0  0  0  0
 11 12  1  0  0  0  0
 12 13  3  0  0  0  0
 14 15  1  0  0  0  0
 14 36  1  0  0  0  0
 15 16  2  0  0  0  0
 15 17  1  0  0  0  0
 17 18  1  0  0  0  0
 17 37  1  0  0  0  0
 17 38  1  0  0  0  0
 18 25  2  0  0  0  0
 18 19  1  0  0  0  0
 19 20  1  0  0  0  0
 19 22  2  0  0  0  0
 20 21  1  0  0  0  0
 21 39  1  0  0  0  0
 21 40  1  0  0  0  0
 21 41  1  0  0  0  0
 22 23  1  0  0  0  0
 22 42  1  0  0  0  0
 23 24  2  0  0  0  0
 23 43  1  0  0  0  0
 24 25  1  0  0  0  0
 24 26  1  0  0  0  0
 25 44  1  0  0  0  0
 26 27  1  0  0  0  0
 27 45  1  0  0  0  0
 27 46  1  0  0  0  0
 27 47  1  0  0  0  0
M  END
$$$$
