18639-1
 OpenBabel02232411163D
Structure written by MMmdl.
 48 49  0  0  0  0  0  0  0  0999 V2000
   23.8480   12.6190   30.3510 C   0  0  0  0  0  0  0  0  0  0  0  0
   23.3800   11.1790   30.4380 C   0  0  0  0  0  0  0  0  0  0  0  0
   22.1440   11.2760   31.2560 O   0  0  0  0  0  0  0  0  0  0  0  0
   21.5200   10.1330   31.6120 C   0  0  0  0  0  0  0  0  0  0  0  0
   22.0000    8.9470   31.1660 N   0  0  0  0  0  0  0  0  0  0  0  0
   21.2810    7.8070   31.4910 C   0  0  0  0  0  0  0  0  0  0  0  0
   20.1310    7.8390   32.2740 C   0  0  0  0  0  0  0  0  0  0  0  0
   19.6440    9.0860   32.7490 C   0  0  0  0  0  0  0  0  0  0  0  0
   18.4990    9.1170   33.5040 N   0  0  0  0  0  0  0  0  0  0  0  0
   20.3480   10.2850   32.4120 C   0  0  0  0  0  0  0  0  0  0  0  0
   19.9350   11.5820   32.7840 C   0  0  0  0  0  0  0  0  0  0  0  0
   19.6440   12.6740   33.0480 N   0  0  0  0  0  0  0  0  0  0  0  0
   21.8490    6.6410   30.9260 N   0  0  0  0  0  0  0  0  0  0  0  0
   21.2450    5.3680   30.8580 C   0  0  0  0  0  0  0  0  0  0  0  0
   20.1610    5.1240   31.3460 O   0  0  0  0  0  0  0  0  0  0  0  0
   22.0480    4.3550   30.0500 C   0  0  0  0  0  0  0  0  0  0  0  0
   23.4000    4.0440   30.6210 C   0  0  0  0  0  0  0  0  0  0  0  0
   24.5200    4.8790   30.3160 C   0  0  0  0  0  0  0  0  0  0  0  0
   24.1960    5.9300   29.4690 O   0  0  0  0  0  0  0  0  0  0  0  0
   25.1860    6.9800   29.2870 C   0  0  0  0  0  0  0  0  0  0  0  0
   25.7860    4.6090   30.8110 C   0  0  0  0  0  0  0  0  0  0  0  0
   25.9780    3.4890   31.6470 C   0  0  0  0  0  0  0  0  0  0  0  0
   27.3170    3.2030   32.1710 N   0  3  0  0  0  0  0  0  0  0  0  0
   27.4170    2.4130   33.0980 O   0  5  0  0  0  0  0  0  0  0  0  0
   28.2780    3.7610   31.6570 O   0  0  0  0  0  0  0  0  0  0  0  0
   24.8830    2.6470   31.9500 C   0  0  0  0  0  0  0  0  0  0  0  0
   23.6020    2.9310   31.4200 C   0  0  0  0  0  0  0  0  0  0  0  0
   25.1930    1.6020   32.7670 O   0  0  0  0  0  0  0  0  0  0  0  0
   24.1720    0.5830   32.9820 C   0  0  0  0  0  0  0  0  0  0  0  0
   24.7470   12.6620   29.6850 H   0  0  0  0  0  0  0  0  0  0  0  0
   23.0580   13.2700   29.9090 H   0  0  0  0  0  0  0  0  0  0  0  0
   24.1260   13.0180   31.3520 H   0  0  0  0  0  0  0  0  0  0  0  0
   23.0910   10.7620   29.4470 H   0  0  0  0  0  0  0  0  0  0  0  0
   24.1050   10.5230   30.9710 H   0  0  0  0  0  0  0  0  0  0  0  0
   19.5850    6.9230   32.5100 H   0  0  0  0  0  0  0  0  0  0  0  0
   18.0030    8.2420   33.7570 H   0  0  0  0  0  0  0  0  0  0  0  0
   18.0880   10.0000   33.8100 H   0  0  0  0  0  0  0  0  0  0  0  0
   22.7660    6.7790   30.4320 H   0  0  0  0  0  0  0  0  0  0  0  0
   21.4480    3.4090   29.9750 H   0  0  0  0  0  0  0  0  0  0  0  0
   22.1810    4.7730   29.0120 H   0  0  0  0  0  0  0  0  0  0  0  0
   25.5140    7.3820   30.2690 H   0  0  0  0  0  0  0  0  0  0  0  0
   26.0310    6.5850   28.6840 H   0  0  0  0  0  0  0  0  0  0  0  0
   24.5970    7.7370   28.7190 H   0  0  0  0  0  0  0  0  0  0  0  0
   26.6450    5.2410   30.5550 H   0  0  0  0  0  0  0  0  0  0  0  0
   22.7660    2.2610   31.6420 H   0  0  0  0  0  0  0  0  0  0  0  0
   24.7300   -0.1600   33.6010 H   0  0  0  0  0  0  0  0  0  0  0  0
   23.3170    1.0110   33.5470 H   0  0  0  0  0  0  0  0  0  0  0  0
   23.8640    0.1410   32.0100 H   0  0  0  0  0  0  0  0  0  0  0  0
  1  2  1  0  0  0  0
  1 30  1  0  0  0  0
  1 31  1  0  0  0  0
  1 32  1  0  0  0  0
  2  3  1  0  0  0  0
  2 33  1  0  0  0  0
  2 34  1  0  0  0  0
  3  4  1  0  0  0  0
  4 10  2  0  0  0  0
  4  5  1  0  0  0  0
  5  6  2  0  0  0  0
  6  7  1  0  0  0  0
  6 13  1  0  0  0  0
  7  8  2  0  0  0  0
  7 35  1  0  0  0  0
  8  9  1  0  0  0  0
  8 10  1  0  0  0  0
  9 36  1  0  0  0  0
  9 37  1  0  0  0  0
 10 11  1  0  0  0  0
 11 12  3  0  0  0  0
 13 14  1  0  0  0  0
 13 38  1  0  0  0  0
 14 15  2  0  0  0  0
 14 16  1  0  0  0  0
 16 17  1  0  0  0  0
 16 39  1  0  0  0  0
 16 40  1  0  0  0  0
 17 27  2  0  0  0  0
 17 18  1  0  0  0  0
 18 19  1  0  0  0  0
 18 21  2  0  0  0  0
 19 20  1  0  0  0  0
 20 41  1  0  0  0  0
 20 42  1  0  0  0  0
 20 43  1  0  0  0  0
 21 22  1  0  0  0  0
 21 44  1  0  0  0  0
 22 23  1  0  0  0  0
 22 26  2  0  0  0  0
 23 24  1  0  0  0  0
 23 25  2  0  0  0  0
 26 27  1  0  0  0  0
 26 28  1  0  0  0  0
 27 45  1  0  0  0  0
 28 29  1  0  0  0  0
 29 46  1  0  0  0  0
 29 47  1  0  0  0  0
 29 48  1  0  0  0  0
M  CHG  2  23   1  24  -1
M  END
$$$$
