6a
 OpenBabel02232411173D

 52 54  0  0  1  0  0  0  0  0999 V2000
   17.8490  -13.0670   21.4680 N   0  0  0  0  0  0  0  0  0  0  0  0
   17.6020  -11.6970   20.9220 C   0  0  2  0  0  0  0  0  0  0  0  0
   16.9600  -13.6380   22.3390 C   0  0  0  0  0  0  0  0  0  0  0  0
   15.9710  -13.0150   22.7200 O   0  0  0  0  0  0  0  0  0  0  0  0
   16.1720  -11.6010   20.3180 C   0  0  0  0  0  0  0  0  0  0  0  0
   15.6580  -12.4830   19.6490 O   0  0  0  0  0  0  0  0  0  0  0  0
   18.6980  -11.4760   19.8640 C   0  0  0  0  0  0  0  0  0  0  0  0
   17.2180  -15.0880   22.8270 C   0  0  2  0  0  0  0  0  0  0  0  0
   15.5500  -10.3850   20.5560 N   0  0  0  0  0  0  0  0  0  0  0  0
   19.7500  -12.5840   20.0560 C   0  0  0  0  0  0  0  0  0  0  0  0
   15.8860  -15.8550   22.7220 N   0  3  0  0  0  0  0  0  0  0  0  0
   17.7000  -15.1220   24.2900 C   0  0  0  0  0  0  0  0  0  0  0  0
   14.1270  -10.1160   20.2430 C   0  0  0  0  0  0  0  0  0  0  0  0
   19.0910  -13.6840   20.9110 C   0  0  0  0  0  0  0  0  0  0  0  0
   19.1620  -14.7720   24.4360 C   0  0  0  0  0  0  0  0  0  0  0  0
   13.2500  -10.1710   21.4710 C   0  0  0  0  0  0  0  0  0  0  0  0
   19.5540  -13.6850   25.2270 C   0  0  0  0  0  0  0  0  0  0  0  0
   12.3280  -11.1980   21.7120 C   0  0  0  0  0  0  0  0  0  0  0  0
   20.9110  -13.3880   25.3980 C   0  0  0  0  0  0  0  0  0  0  0  0
   11.4360  -11.1540   22.7900 C   0  0  0  0  0  0  0  0  0  0  0  0
   21.8870  -14.1880   24.7980 C   0  0  0  0  0  0  0  0  0  0  0  0
   11.4860  -10.0830   23.6840 C   0  0  0  0  0  0  0  0  0  0  0  0
   21.4980  -15.2840   24.0170 C   0  0  0  0  0  0  0  0  0  0  0  0
   12.4530   -9.0910   23.4880 C   0  0  0  0  0  0  0  0  0  0  0  0
   20.1450  -15.5760   23.8360 C   0  0  0  0  0  0  0  0  0  0  0  0
   13.3220   -9.1190   22.3970 C   0  0  0  0  0  0  0  0  0  0  0  0
   17.7290  -10.9550   21.7570 H   0  0  0  0  0  0  0  0  0  0  0  0
   18.2800  -11.5200   18.8320 H   0  0  0  0  0  0  0  0  0  0  0  0
   19.1550  -10.4770   20.0350 H   0  0  0  0  0  0  0  0  0  0  0  0
   17.9500  -15.6470   22.1740 H   0  0  0  0  0  0  0  0  0  0  0  0
   16.0320   -9.6740   21.1370 H   0  0  0  0  0  0  0  0  0  0  0  0
   20.0740  -13.0060   19.0750 H   0  0  0  0  0  0  0  0  0  0  0  0
   20.6500  -12.1830   20.5790 H   0  0  0  0  0  0  0  0  0  0  0  0
   16.0240  -16.8450   23.0840 H   0  0  0  0  0  0  0  0  0  0  0  0
   15.1280  -15.3600   23.2950 H   0  0  0  0  0  0  0  0  0  0  0  0
   15.5810  -15.9240   21.7100 H   0  0  0  0  0  0  0  0  0  0  0  0
   17.0680  -14.4410   24.9140 H   0  0  0  0  0  0  0  0  0  0  0  0
   17.5760  -16.1700   24.6900 H   0  0  0  0  0  0  0  0  0  0  0  0
   14.0760   -9.0710   19.8190 H   0  0  0  0  0  0  0  0  0  0  0  0
   13.7810  -10.8280   19.4420 H   0  0  0  0  0  0  0  0  0  0  0  0
   19.7660  -14.0010   21.7470 H   0  0  0  0  0  0  0  0  0  0  0  0
   18.8290  -14.5720   20.2800 H   0  0  0  0  0  0  0  0  0  0  0  0
   18.8040  -13.0810   25.7320 H   0  0  0  0  0  0  0  0  0  0  0  0
   12.2550  -12.5610   20.6630 Cl  0  0  0  0  0  0  0  0  0  0  0  0
   21.1920  -12.5270   26.0110 H   0  0  0  0  0  0  0  0  0  0  0  0
   10.6980  -11.9530   22.9370 H   0  0  0  0  0  0  0  0  0  0  0  0
   22.9490  -13.9710   24.9420 H   0  0  0  0  0  0  0  0  0  0  0  0
   22.2480  -15.9260   23.5430 H   0  0  0  0  0  0  0  0  0  0  0  0
   12.6130   -7.8200   24.6340 Cl  0  0  0  0  0  0  0  0  0  0  0  0
   19.8530  -16.4420   23.2360 H   0  0  0  0  0  0  0  0  0  0  0  0
   14.0610   -8.3290   22.2600 H   0  0  0  0  0  0  0  0  0  0  0  0
   10.7750  -10.0320   24.5170 H   0  0  0  0  0  0  0  0  0  0  0  0
  1  2  1  0  0  0  0
  1 14  1  0  0  0  0
  1  3  1  0  0  0  0
  2  5  1  0  0  0  0
  2  7  1  0  0  0  0
  2 27  1  1  0  0  0
  3  8  1  0  0  0  0
  3  4  2  0  0  0  0
  5  6  2  0  0  0  0
  5  9  1  0  0  0  0
  7 10  1  0  0  0  0
  7 28  1  0  0  0  0
  7 29  1  0  0  0  0
  8 11  1  0  0  0  0
  8 12  1  0  0  0  0
  8 30  1  6  0  0  0
  9 13  1  0  0  0  0
  9 31  1  0  0  0  0
 10 14  1  0  0  0  0
 10 32  1  0  0  0  0
 10 33  1  0  0  0  0
 11 34  1  0  0  0  0
 11 35  1  0  0  0  0
 11 36  1  0  0  0  0
 12 15  1  0  0  0  0
 12 37  1  0  0  0  0
 12 38  1  0  0  0  0
 13 16  1  0  0  0  0
 13 39  1  0  0  0  0
 13 40  1  0  0  0  0
 14 41  1  0  0  0  0
 14 42  1  0  0  0  0
 15 17  2  0  0  0  0
 15 25  1  0  0  0  0
 16 18  2  0  0  0  0
 16 26  1  0  0  0  0
 17 19  1  0  0  0  0
 17 43  1  0  0  0  0
 18 20  1  0  0  0  0
 18 44  1  0  0  0  0
 19 21  2  0  0  0  0
 19 45  1  0  0  0  0
 20 22  2  0  0  0  0
 20 46  1  0  0  0  0
 21 23  1  0  0  0  0
 21 47  1  0  0  0  0
 22 24  1  0  0  0  0
 22 52  1  0  0  0  0
 23 25  2  0  0  0  0
 23 48  1  0  0  0  0
 24 26  2  0  0  0  0
 24 49  1  0  0  0  0
 25 50  1  0  0  0  0
 26 51  1  0  0  0  0
M  CHG  1  11   1
M  END
$$$$
