p38a_2t
 OpenBabel02232411163D
Structure written by MMmdl.
 47 50  0  0  0  0  0  0  0  0999 V2000
   38.2900   36.5370   17.1550 C   0  0  0  0  0  0  0  0  0  0  0  0
   34.5270   35.0500   21.2060 C   0  0  0  0  0  0  0  0  0  0  0  0
   37.5120   36.0760   18.2140 C   0  0  0  0  0  0  0  0  0  0  0  0
   33.9560   39.1280   23.7710 C   0  0  0  0  0  0  0  0  0  0  0  0
   34.6270   37.9290   21.3770 C   0  0  0  0  0  0  0  0  0  0  0  0
   35.0390   37.2770   20.1630 C   0  0  0  0  0  0  0  0  0  0  0  0
   37.6370   36.6920   15.9230 C   0  0  0  0  0  0  0  0  0  0  0  0
   36.2890   36.3870   15.7220 C   0  0  0  0  0  0  0  0  0  0  0  0
   35.5330   35.9110   16.7980 C   0  0  0  0  0  0  0  0  0  0  0  0
   34.2310   37.1590   22.5080 C   0  0  0  0  0  0  0  0  0  0  0  0
   34.6130   39.3430   21.5300 C   0  0  0  0  0  0  0  0  0  0  0  0
   35.0240   35.9260   20.1130 C   0  0  0  0  0  0  0  0  0  0  0  0
   36.1520   35.7450   18.0400 C   0  0  0  0  0  0  0  0  0  0  0  0
   38.0470   35.9460   19.4200 F   0  0  0  0  0  0  0  0  0  0  0  0
   35.4430   35.1060   19.0670 O   0  0  0  0  0  0  0  0  0  0  0  0
   34.2980   39.9540   22.6820 N   0  0  0  0  0  0  0  0  0  0  0  0
   34.4410   33.8440   21.1690 O   0  0  0  0  0  0  0  0  0  0  0  0
   34.1470   35.7540   22.4100 N   0  0  0  0  0  0  0  0  0  0  0  0
   33.9280   37.7450   23.7070 N   0  0  0  0  0  0  0  0  0  0  0  0
   33.5830   39.7390   24.9430 N   0  0  0  0  0  0  0  0  0  0  0  0
   39.3420   36.8040   17.2860 H   0  0  0  0  0  0  0  0  0  0  0  0
   35.3630   37.9000   19.3270 H   0  0  0  0  0  0  0  0  0  0  0  0
   35.8140   36.5300   14.7480 H   0  0  0  0  0  0  0  0  0  0  0  0
   34.4690   35.6900   16.6630 H   0  0  0  0  0  0  0  0  0  0  0  0
   34.8680   39.9880   20.6720 H   0  0  0  0  0  0  0  0  0  0  0  0
   33.6900   40.7660   25.0460 H   0  0  0  0  0  0  0  0  0  0  0  0
   38.3300   37.1960   14.9050 F   0  0  0  0  0  0  0  0  0  0  0  0
   32.1150   39.0210   28.3950 C   0  0  0  0  0  0  0  0  0  0  0  0
   32.2770   39.7080   27.0330 C   0  0  0  0  0  0  0  0  0  0  0  0
   33.3570   38.9760   26.2090 C   0  0  0  0  0  0  0  0  0  0  0  0
   34.6720   38.8730   27.0120 C   0  0  0  0  0  0  0  0  0  0  0  0
   34.3970   38.2330   28.3770 C   0  0  0  0  0  0  0  0  0  0  0  0
   33.3710   38.9480   29.1050 O   0  0  0  0  0  0  0  0  0  0  0  0
   31.7030   37.9910   28.2730 H   0  0  0  0  0  0  0  0  0  0  0  0
   31.4870   39.6310   29.0840 H   0  0  0  0  0  0  0  0  0  0  0  0
   32.5690   40.7740   27.1830 H   0  0  0  0  0  0  0  0  0  0  0  0
   31.3070   39.6840   26.4800 H   0  0  0  0  0  0  0  0  0  0  0  0
   32.9840   37.9440   25.9510 H   0  0  0  0  0  0  0  0  0  0  0  0
   35.4080   38.2470   26.4520 H   0  0  0  0  0  0  0  0  0  0  0  0
   35.1090   39.8910   27.1490 H   0  0  0  0  0  0  0  0  0  0  0  0
   34.0800   37.1700   28.2620 H   0  0  0  0  0  0  0  0  0  0  0  0
   35.2770   38.3290   29.0540 H   0  0  0  0  0  0  0  0  0  0  0  0
   33.6460   34.9520   23.5720 C   0  0  0  0  0  0  0  0  0  0  0  0
   33.2960   35.6310   24.4140 H   0  0  0  0  0  0  0  0  0  0  0  0
   32.7470   34.3430   23.2480 H   0  0  0  0  0  0  0  0  0  0  0  0
   34.6980   34.0680   24.0720 C   0  0  0  0  0  0  0  0  0  0  0  0
   35.5330   33.3640   24.4490 N   0  0  0  0  0  0  0  0  0  0  0  0
  1  3  2  0  0  0  0
  1  7  1  0  0  0  0
  1 21  1  0  0  0  0
  2 12  1  0  0  0  0
  2 17  2  0  0  0  0
  2 18  1  0  0  0  0
  3 13  1  0  0  0  0
  3 14  1  0  0  0  0
  4 16  2  0  0  0  0
  4 19  1  0  0  0  0
  4 20  1  0  0  0  0
  5  6  1  0  0  0  0
  5 10  1  0  0  0  0
  5 11  2  0  0  0  0
  6 12  2  0  0  0  0
  6 22  1  0  0  0  0
  7  8  2  0  0  0  0
  7 27  1  0  0  0  0
  8  9  1  0  0  0  0
  8 23  1  0  0  0  0
  9 13  2  0  0  0  0
  9 24  1  0  0  0  0
 10 18  1  0  0  0  0
 10 19  2  0  0  0  0
 11 16  1  0  0  0  0
 11 25  1  0  0  0  0
 12 15  1  0  0  0  0
 13 15  1  0  0  0  0
 18 43  1  0  0  0  0
 20 26  1  0  0  0  0
 20 30  1  0  0  0  0
 28 29  1  0  0  0  0
 28 33  1  0  0  0  0
 28 34  1  0  0  0  0
 28 35  1  0  0  0  0
 29 30  1  0  0  0  0
 29 36  1  0  0  0  0
 29 37  1  0  0  0  0
 30 31  1  0  0  0  0
 30 38  1  0  0  0  0
 31 32  1  0  0  0  0
 31 39  1  0  0  0  0
 31 40  1  0  0  0  0
 32 33  1  0  0  0  0
 32 41  1  0  0  0  0
 32 42  1  0  0  0  0
 43 44  1  0  0  0  0
 43 45  1  0  0  0  0
 43 46  1  0  0  0  0
 46 47  3  0  0  0  0
M  END
$$$$
