p38a_2s
 OpenBabel02232411163D
Structure written by MMmdl.
 54 57  0  0  1  0  0  0  0  0999 V2000
   36.3240   35.9210   15.9860 C   0  0  0  0  0  0  0  0  0  0  0  0
   34.5460   35.0500   21.5950 C   0  0  0  0  0  0  0  0  0  0  0  0
   35.6200   35.4980   17.1100 C   0  0  0  0  0  0  0  0  0  0  0  0
   34.1780   39.1800   24.0810 C   0  0  0  0  0  0  0  0  0  0  0  0
   34.7810   37.9070   21.7080 C   0  0  0  0  0  0  0  0  0  0  0  0
   35.1560   37.2200   20.5020 C   0  0  0  0  0  0  0  0  0  0  0  0
   37.6200   36.4070   16.2060 C   0  0  0  0  0  0  0  0  0  0  0  0
   38.2270   36.4400   17.4650 C   0  0  0  0  0  0  0  0  0  0  0  0
   37.4880   36.0370   18.5830 C   0  0  0  0  0  0  0  0  0  0  0  0
   34.4400   37.1690   22.8770 C   0  0  0  0  0  0  0  0  0  0  0  0
   34.7450   39.3260   21.8100 C   0  0  0  0  0  0  0  0  0  0  0  0
   35.0800   35.8690   20.4750 C   0  0  0  0  0  0  0  0  0  0  0  0
   36.1840   35.5690   18.4000 C   0  0  0  0  0  0  0  0  0  0  0  0
   34.3980   34.9970   16.9900 F   0  0  0  0  0  0  0  0  0  0  0  0
   35.4040   35.0140   19.4240 O   0  0  0  0  0  0  0  0  0  0  0  0
   34.4490   39.9710   22.9460 N   0  0  0  0  0  0  0  0  0  0  0  0
   34.2640   33.8720   21.5250 O   0  0  0  0  0  0  0  0  0  0  0  0
   34.3480   35.7640   22.8300 N   0  0  0  0  0  0  0  0  0  0  0  0
   34.1640   37.7970   24.0660 N   0  0  0  0  0  0  0  0  0  0  0  0
   33.8200   39.8290   25.2380 N   0  0  0  0  0  0  0  0  0  0  0  0
   35.8820   35.9030   14.9860 H   0  0  0  0  0  0  0  0  0  0  0  0
   35.5010   37.8170   19.6540 H   0  0  0  0  0  0  0  0  0  0  0  0
   39.2520   36.8040   17.5800 H   0  0  0  0  0  0  0  0  0  0  0  0
   37.9260   36.1100   19.5810 H   0  0  0  0  0  0  0  0  0  0  0  0
   34.9620   39.9410   20.9200 H   0  0  0  0  0  0  0  0  0  0  0  0
   33.9040   40.8670   25.2760 H   0  0  0  0  0  0  0  0  0  0  0  0
   38.2900   36.8920   15.1640 F   0  0  0  0  0  0  0  0  0  0  0  0
   32.8070   39.3360   28.8880 C   0  0  0  0  0  0  0  0  0  0  0  0
   32.7970   39.9280   27.4730 C   0  0  0  0  0  0  0  0  0  0  0  0
   33.7770   39.1510   26.5710 C   0  0  0  0  0  0  0  0  0  0  0  0
   35.1810   39.1110   27.2120 C   0  0  0  0  0  0  0  0  0  0  0  0
   35.0780   38.5480   28.6360 C   0  0  0  0  0  0  0  0  0  0  0  0
   34.1430   39.3000   29.4410 O   0  0  0  0  0  0  0  0  0  0  0  0
   32.3850   38.3050   28.8950 H   0  0  0  0  0  0  0  0  0  0  0  0
   32.2740   40.0040   29.6040 H   0  0  0  0  0  0  0  0  0  0  0  0
   33.0980   41.0030   27.5220 H   0  0  0  0  0  0  0  0  0  0  0  0
   31.7670   39.8730   27.0480 H   0  0  0  0  0  0  0  0  0  0  0  0
   33.4080   38.0980   26.4350 H   0  0  0  0  0  0  0  0  0  0  0  0
   35.8550   38.4600   26.6060 H   0  0  0  0  0  0  0  0  0  0  0  0
   35.6150   40.1390   27.2410 H   0  0  0  0  0  0  0  0  0  0  0  0
   34.7630   37.4780   28.6170 H   0  0  0  0  0  0  0  0  0  0  0  0
   36.0330   38.6830   29.1920 H   0  0  0  0  0  0  0  0  0  0  0  0
   34.0450   34.9940   24.0780 C   0  0  0  0  0  0  0  0  0  0  0  0
   34.6620   34.0510   24.0670 H   0  0  0  0  0  0  0  0  0  0  0  0
   34.3800   35.6020   24.9700 H   0  0  0  0  0  0  0  0  0  0  0  0
   32.5550   34.6140   24.2680 C   0  0  2  0  0  0  0  0  0  0  0  0
   32.2160   33.4230   23.5510 O   0  0  0  0  0  0  0  0  0  0  0  0
   32.7020   33.3990   22.6850 H   0  0  0  0  0  0  0  0  0  0  0  0
   31.5290   35.7010   23.8680 C   0  0  0  0  0  0  0  0  0  0  0  0
   30.4990   35.2680   23.8520 H   0  0  0  0  0  0  0  0  0  0  0  0
   31.7850   36.1750   22.9000 H   0  0  0  0  0  0  0  0  0  0  0  0
   32.4050   34.3230   25.3430 H   0  0  0  0  0  0  0  0  0  0  0  0
   31.4420   36.7150   24.8740 O   0  0  0  0  0  0  0  0  0  0  0  0
   32.2980   37.2040   24.9150 H   0  0  0  0  0  0  0  0  0  0  0  0
  1  3  2  0  0  0  0
  1  7  1  0  0  0  0
  1 21  1  0  0  0  0
  2 12  1  0  0  0  0
  2 17  2  0  0  0  0
  2 18  1  0  0  0  0
  3 13  1  0  0  0  0
  3 14  1  0  0  0  0
  4 16  2  0  0  0  0
  4 19  1  0  0  0  0
  4 20  1  0  0  0  0
  5  6  1  0  0  0  0
  5 10  1  0  0  0  0
  5 11  2  0  0  0  0
  6 12  2  0  0  0  0
  6 22  1  0  0  0  0
  7  8  2  0  0  0  0
  7 27  1  0  0  0  0
  8  9  1  0  0  0  0
  8 23  1  0  0  0  0
  9 13  2  0  0  0  0
  9 24  1  0  0  0  0
 10 18  1  0  0  0  0
 10 19  2  0  0  0  0
 11 16  1  0  0  0  0
 11 25  1  0  0  0  0
 12 15  1  0  0  0  0
 13 15  1  0  0  0  0
 18 43  1  0  0  0  0
 20 26  1  0  0  0  0
 20 30  1  0  0  0  0
 28 29  1  0  0  0  0
 28 33  1  0  0  0  0
 28 34  1  0  0  0  0
 28 35  1  0  0  0  0
 29 30  1  0  0  0  0
 29 36  1  0  0  0  0
 29 37  1  0  0  0  0
 30 31  1  0  0  0  0
 30 38  1  0  0  0  0
 31 32  1  0  0  0  0
 31 39  1  0  0  0  0
 31 40  1  0  0  0  0
 32 33  1  0  0  0  0
 32 41  1  0  0  0  0
 32 42  1  0  0  0  0
 43 44  1  0  0  0  0
 43 45  1  0  0  0  0
 43 46  1  0  0  0  0
 46 47  1  0  0  0  0
 46 49  1  0  0  0  0
 46 52  1  1  0  0  0
 47 48  1  0  0  0  0
 49 50  1  0  0  0  0
 49 51  1  0  0  0  0
 49 53  1  0  0  0  0
 53 54  1  0  0  0  0
M  END
$$$$
