CAT-13i
 OpenBabel02232411143D
Structure written by MMmdl.
 46 49  0  0  1  0  0  0  0  0999 V2000
   11.7730   -1.8310    1.1540 C   0  0  0  0  0  0  0  0  0  0  0  0
   13.0740   -2.2240    0.5830 N   0  0  0  0  0  0  0  0  0  0  0  0
   14.2470   -2.3180    1.3420 C   0  0  0  0  0  0  0  0  0  0  0  0
   14.3460   -2.2880    2.6960 N   0  0  0  0  0  0  0  0  0  0  0  0
   15.3370   -2.5380    0.5030 N   0  3  0  0  0  0  0  0  0  0  0  0
   14.8680   -2.8870   -0.8870 C   0  0  2  0  0  0  0  0  0  0  0  0
   15.1540   -4.3570   -1.2070 C   0  0  0  0  0  0  0  0  0  0  0  0
   14.6400   -5.4750   -0.3160 C   0  0  0  0  0  0  0  0  0  0  0  0
   13.7490   -5.4230    0.9180 C   0  0  0  0  0  0  0  0  0  0  0  0
   13.2030   -5.9810   -0.3750 C   0  0  0  0  0  0  0  0  0  0  0  0
   15.4400   -1.8610   -1.8620 C   0  0  0  0  0  0  0  0  0  0  0  0
   16.1510   -2.2360   -3.0070 C   0  0  0  0  0  0  0  0  0  0  0  0
   16.5980   -1.2520   -3.8970 C   0  0  0  0  0  0  0  0  0  0  0  0
   16.3460    0.0980   -3.6580 C   0  0  0  0  0  0  0  0  0  0  0  0
   15.6550    0.4900   -2.4980 C   0  0  0  0  0  0  0  0  0  0  0  0
   15.4000    1.9220   -2.2180 C   0  0  0  0  0  0  0  0  0  0  0  0
   15.6150    2.4340   -0.9280 C   0  0  0  0  0  0  0  0  0  0  0  0
   15.3230    3.7690   -0.6340 C   0  0  0  0  0  0  0  0  0  0  0  0
   14.8310    4.6170   -1.6280 C   0  0  0  0  0  0  0  0  0  0  0  0
   14.6660    4.1090   -2.9200 C   0  0  0  0  0  0  0  0  0  0  0  0
   14.1130    5.1630   -4.1600 Cl  0  0  0  0  0  0  0  0  0  0  0  0
   14.9330    2.7740   -3.2330 C   0  0  0  0  0  0  0  0  0  0  0  0
   15.2050   -0.4970   -1.6090 C   0  0  0  0  0  0  0  0  0  0  0  0
   13.3300   -2.6250   -0.8100 C   0  0  0  0  0  0  0  0  0  0  0  0
   12.4700   -2.6640   -1.6310 O   0  0  0  0  0  0  0  0  0  0  0  0
   11.6450   -2.2730    2.1780 H   0  0  0  0  0  0  0  0  0  0  0  0
   11.7350   -0.7120    1.2150 H   0  0  0  0  0  0  0  0  0  0  0  0
   10.9460   -2.2070    0.4950 H   0  0  0  0  0  0  0  0  0  0  0  0
   13.6090   -1.8760    3.3140 H   0  0  0  0  0  0  0  0  0  0  0  0
   16.2220   -2.9480    0.9010 H   0  0  0  0  0  0  0  0  0  0  0  0
   16.2750   -4.4620   -1.2440 H   0  0  0  0  0  0  0  0  0  0  0  0
   14.7440   -4.5660   -2.2350 H   0  0  0  0  0  0  0  0  0  0  0  0
   15.4200   -6.2590   -0.2670 H   0  0  0  0  0  0  0  0  0  0  0  0
   13.9880   -6.1240    1.7330 H   0  0  0  0  0  0  0  0  0  0  0  0
   13.3340   -4.5050    1.3210 H   0  0  0  0  0  0  0  0  0  0  0  0
   12.4610   -5.4000   -0.9320 H   0  0  0  0  0  0  0  0  0  0  0  0
   13.0320   -7.0650   -0.4480 H   0  0  0  0  0  0  0  0  0  0  0  0
   16.3650   -3.2830   -3.2220 H   0  0  0  0  0  0  0  0  0  0  0  0
   17.1580   -1.5410   -4.7900 H   0  0  0  0  0  0  0  0  0  0  0  0
   16.6950    0.8480   -4.3760 H   0  0  0  0  0  0  0  0  0  0  0  0
   16.0010    1.7800   -0.1450 H   0  0  0  0  0  0  0  0  0  0  0  0
   15.4720    4.1390    0.3850 H   0  0  0  0  0  0  0  0  0  0  0  0
   14.5640    5.6500   -1.3910 H   0  0  0  0  0  0  0  0  0  0  0  0
   14.7720    2.3930   -4.2470 H   0  0  0  0  0  0  0  0  0  0  0  0
   14.6710   -0.2030   -0.7050 H   0  0  0  0  0  0  0  0  0  0  0  0
   15.3000   -2.3150    3.1450 H   0  0  0  0  0  0  0  0  0  0  0  0
  1  2  1  0  0  0  0
  1 26  1  0  0  0  0
  1 27  1  0  0  0  0
  1 28  1  0  0  0  0
  2  3  1  0  0  0  0
  2 24  1  0  0  0  0
  3  4  1  0  0  0  0
  3  5  2  0  0  0  0
  4 29  1  0  0  0  0
  4 46  1  0  0  0  0
  5  6  1  0  0  0  0
  5 30  1  0  0  0  0
  6  7  1  6  0  0  0
  6 11  1  0  0  0  0
  6 24  1  0  0  0  0
  7  8  1  0  0  0  0
  7 31  1  0  0  0  0
  7 32  1  0  0  0  0
  8  9  1  0  0  0  0
  8 10  1  0  0  0  0
  8 33  1  0  0  0  0
  9 10  1  0  0  0  0
  9 34  1  0  0  0  0
  9 35  1  0  0  0  0
 10 36  1  0  0  0  0
 10 37  1  0  0  0  0
 11 12  2  0  0  0  0
 11 23  1  0  0  0  0
 12 13  1  0  0  0  0
 12 38  1  0  0  0  0
 13 14  2  0  0  0  0
 13 39  1  0  0  0  0
 14 15  1  0  0  0  0
 14 40  1  0  0  0  0
 15 16  1  0  0  0  0
 15 23  2  0  0  0  0
 16 17  2  0  0  0  0
 16 22  1  0  0  0  0
 17 18  1  0  0  0  0
 17 41  1  0  0  0  0
 18 19  2  0  0  0  0
 18 42  1  0  0  0  0
 19 20  1  0  0  0  0
 19 43  1  0  0  0  0
 20 21  1  0  0  0  0
 20 22  2  0  0  0  0
 22 44  1  0  0  0  0
 23 45  1  0  0  0  0
 24 25  2  0  0  0  0
M  CHG  1   5   1
M  END
$$$$
