p38a_2aa
 OpenBabel02232411163D
Structure written by MMmdl.
 43 45  0  0  0  0  0  0  0  0999 V2000
   38.2600   36.5160   17.1760 C   0  0  0  0  0  0  0  0  0  0  0  0
   34.6430   35.1570   21.2980 C   0  0  0  0  0  0  0  0  0  0  0  0
   37.4640   36.0680   18.2260 C   0  0  0  0  0  0  0  0  0  0  0  0
   34.3590   39.3010   23.7760 C   0  0  0  0  0  0  0  0  0  0  0  0
   34.0950   39.2810   26.2720 C   0  0  0  0  0  0  0  0  0  0  0  0
   34.7270   38.0360   21.3610 C   0  0  0  0  0  0  0  0  0  0  0  0
   35.0260   37.3480   20.1350 C   0  0  0  0  0  0  0  0  0  0  0  0
   37.6260   36.6710   15.9360 C   0  0  0  0  0  0  0  0  0  0  0  0
   36.2790   36.3710   15.7170 C   0  0  0  0  0  0  0  0  0  0  0  0
   35.5030   35.9130   16.7870 C   0  0  0  0  0  0  0  0  0  0  0  0
   34.5280   37.2930   22.5630 C   0  0  0  0  0  0  0  0  0  0  0  0
   34.6350   39.4490   21.4540 C   0  0  0  0  0  0  0  0  0  0  0  0
   35.0310   35.9960   20.1320 C   0  0  0  0  0  0  0  0  0  0  0  0
   36.1000   35.7560   18.0400 C   0  0  0  0  0  0  0  0  0  0  0  0
   34.2860   35.1390   23.7990 C   0  0  0  0  0  0  0  0  0  0  0  0
   37.9860   35.9340   19.4390 F   0  0  0  0  0  0  0  0  0  0  0  0
   35.3550   35.1580   19.0670 O   0  0  0  0  0  0  0  0  0  0  0  0
   34.4430   40.0910   22.6180 N   0  0  0  0  0  0  0  0  0  0  0  0
   34.4550   33.9620   21.2800 O   0  0  0  0  0  0  0  0  0  0  0  0
   34.4880   35.8920   22.5300 N   0  0  0  0  0  0  0  0  0  0  0  0
   34.3460   37.9220   23.7720 N   0  0  0  0  0  0  0  0  0  0  0  0
   34.3570   39.9810   24.9850 N   0  0  0  0  0  0  0  0  0  0  0  0
   39.3140   36.7720   17.3190 H   0  0  0  0  0  0  0  0  0  0  0  0
   34.7950   40.0760   27.4050 C   0  0  0  0  0  0  0  0  0  0  0  0
   35.2590   37.9450   19.2500 H   0  0  0  0  0  0  0  0  0  0  0  0
   35.8200   36.5080   14.7350 H   0  0  0  0  0  0  0  0  0  0  0  0
   34.4390   35.6970   16.6360 H   0  0  0  0  0  0  0  0  0  0  0  0
   34.7100   40.0690   20.5440 H   0  0  0  0  0  0  0  0  0  0  0  0
   34.9760   35.5320   24.5960 H   0  0  0  0  0  0  0  0  0  0  0  0
   33.2280   35.2610   24.1540 H   0  0  0  0  0  0  0  0  0  0  0  0
   34.4980   34.0490   23.6410 H   0  0  0  0  0  0  0  0  0  0  0  0
   34.0680   40.9780   24.9830 H   0  0  0  0  0  0  0  0  0  0  0  0
   38.3340   37.1680   14.9250 F   0  0  0  0  0  0  0  0  0  0  0  0
   32.5800   39.1380   26.5680 C   0  0  0  0  0  0  0  0  0  0  0  0
   31.8710   38.4190   25.5510 O   0  0  0  0  0  0  0  0  0  0  0  0
   32.4900   37.7940   25.0980 H   0  0  0  0  0  0  0  0  0  0  0  0
   32.4450   38.5850   27.5300 H   0  0  0  0  0  0  0  0  0  0  0  0
   32.0780   40.1330   26.5920 H   0  0  0  0  0  0  0  0  0  0  0  0
   34.0490   41.2260   27.8270 O   0  0  0  0  0  0  0  0  0  0  0  0
   34.8460   39.4540   28.3330 H   0  0  0  0  0  0  0  0  0  0  0  0
   35.8110   40.4070   27.0850 H   0  0  0  0  0  0  0  0  0  0  0  0
   33.8520   41.8010   27.0220 H   0  0  0  0  0  0  0  0  0  0  0  0
   34.5740   38.2570   26.2400 H   0  0  0  0  0  0  0  0  0  0  0  0
  1  3  2  0  0  0  0
  1  8  1  0  0  0  0
  1 23  1  0  0  0  0
  2 13  1  0  0  0  0
  2 19  2  0  0  0  0
  2 20  1  0  0  0  0
  3 14  1  0  0  0  0
  3 16  1  0  0  0  0
  4 18  2  0  0  0  0
  4 21  1  0  0  0  0
  4 22  1  0  0  0  0
  5 22  1  0  0  0  0
  5 24  1  0  0  0  0
  5 34  1  0  0  0  0
  5 43  1  0  0  0  0
  6  7  1  0  0  0  0
  6 11  1  0  0  0  0
  6 12  2  0  0  0  0
  7 13  2  0  0  0  0
  7 25  1  0  0  0  0
  8  9  2  0  0  0  0
  8 33  1  0  0  0  0
  9 10  1  0  0  0  0
  9 26  1  0  0  0  0
 10 14  2  0  0  0  0
 10 27  1  0  0  0  0
 11 20  1  0  0  0  0
 11 21  2  0  0  0  0
 12 18  1  0  0  0  0
 12 28  1  0  0  0  0
 13 17  1  0  0  0  0
 14 17  1  0  0  0  0
 15 20  1  0  0  0  0
 15 29  1  0  0  0  0
 15 30  1  0  0  0  0
 15 31  1  0  0  0  0
 22 32  1  0  0  0  0
 24 39  1  0  0  0  0
 24 40  1  0  0  0  0
 24 41  1  0  0  0  0
 34 35  1  0  0  0  0
 34 37  1  0  0  0  0
 34 38  1  0  0  0  0
 35 36  1  0  0  0  0
 39 42  1  0  0  0  0
M  END
$$$$
