18639-1
                    3D
 Schrodinger Suite 2022-3.
 48 49  0  0  1  0  0  0  0  0999 V2000
   25.9140    4.8810   30.6240 C   0  0  0  0  0  0  0  0  0  0  0  0
   24.5970    5.0410   30.2260 C   0  0  0  0  0  0  0  0  0  0  0  0
   23.5730    4.1230   30.6220 C   0  0  0  0  0  0  0  0  0  0  0  0
   23.9270    3.0540   31.4290 C   0  0  0  0  0  0  0  0  0  0  0  0
   25.2640    2.8780   31.8570 C   0  0  0  0  0  0  0  0  0  0  0  0
   26.2640    3.7950   31.4550 C   0  0  0  0  0  0  0  0  0  0  0  0
   22.1630    4.2820   30.1300 C   0  0  0  0  0  0  0  0  0  0  0  0
   21.3070    5.2630   30.9240 C   0  0  0  0  0  0  0  0  0  0  0  0
   21.8520    6.5610   30.9710 N   0  0  0  0  0  0  0  0  0  0  0  0
   21.2660    7.7180   31.5330 C   0  0  0  0  0  0  0  0  0  0  0  0
   20.2320    4.9780   31.4080 O   0  0  0  0  0  0  0  0  0  0  0  0
   21.9950    8.8530   31.2140 N   0  0  0  0  0  0  0  0  0  0  0  0
   21.5190   10.0440   31.6450 C   0  0  0  0  0  0  0  0  0  0  0  0
   20.3390   10.2060   32.4290 C   0  0  0  0  0  0  0  0  0  0  0  0
   19.6240    9.0100   32.7640 C   0  0  0  0  0  0  0  0  0  0  0  0
   20.1070    7.7570   32.3000 C   0  0  0  0  0  0  0  0  0  0  0  0
   25.7200    1.8720   32.6530 O   0  0  0  0  0  0  0  0  0  0  0  0
   24.7720    0.8380   33.0520 C   0  0  0  0  0  0  0  0  0  0  0  0
   24.1420    6.0570   29.3920 O   0  0  0  0  0  0  0  0  0  0  0  0
   24.9980    7.2260   29.2410 C   0  0  0  0  0  0  0  0  0  0  0  0
   18.4720    9.0550   33.5050 N   0  0  0  0  0  0  0  0  0  0  0  0
   19.9320   11.5070   32.7940 C   0  0  0  0  0  0  0  0  0  0  0  0
   22.1660   11.1810   31.3060 O   0  0  0  0  0  0  0  0  0  0  0  0
   23.4220   11.0910   30.5320 C   0  0  0  0  0  0  0  0  0  0  0  0
   23.1230   10.9000   29.0600 C   0  0  0  0  0  0  0  0  0  0  0  0
   19.6500   12.6020   33.0530 N   0  0  0  0  0  0  0  0  0  0  0  0
   26.6970    5.5750   30.2950 H   0  0  0  0  0  0  0  0  0  0  0  0
   23.1670    2.3260   31.7260 H   0  0  0  0  0  0  0  0  0  0  0  0
   19.5550    6.8440   32.5330 H   0  0  0  0  0  0  0  0  0  0  0  0
   21.6530    3.2810   30.1440 H   0  0  0  0  0  0  0  0  0  0  0  0
   22.1940    4.6500   29.0650 H   0  0  0  0  0  0  0  0  0  0  0  0
   22.7560    6.7320   30.4590 H   0  0  0  0  0  0  0  0  0  0  0  0
   25.4280    0.1530   33.6400 H   0  0  0  0  0  0  0  0  0  0  0  0
   23.9740    1.2730   33.6910 H   0  0  0  0  0  0  0  0  0  0  0  0
   24.3650    0.3250   32.1530 H   0  0  0  0  0  0  0  0  0  0  0  0
   24.3010    7.9450   28.7530 H   0  0  0  0  0  0  0  0  0  0  0  0
   25.3310    7.6020   30.2330 H   0  0  0  0  0  0  0  0  0  0  0  0
   25.8500    6.9630   28.5780 H   0  0  0  0  0  0  0  0  0  0  0  0
   17.9810    8.1830   33.7820 H   0  0  0  0  0  0  0  0  0  0  0  0
   18.0730    9.9410   33.8140 H   0  0  0  0  0  0  0  0  0  0  0  0
   24.0580   10.2740   30.9430 H   0  0  0  0  0  0  0  0  0  0  0  0
   23.8420   12.1030   30.7500 H   0  0  0  0  0  0  0  0  0  0  0  0
   24.0820   10.9160   28.4850 H   0  0  0  0  0  0  0  0  0  0  0  0
   22.6200    9.9230   28.8740 H   0  0  0  0  0  0  0  0  0  0  0  0
   22.4730   11.7150   28.6700 H   0  0  0  0  0  0  0  0  0  0  0  0
   27.9440    2.6800   32.5800 O   0  0  0  0  0  0  0  0  0  0  0  0
   27.6590    3.6300   31.8680 N   0  3  0  0  0  0  0  0  0  0  0  0
   28.4850    4.4490   31.4800 O   0  5  0  0  0  0  0  0  0  0  0  0
  1  2  1  0  0  0  0
  1  6  2  0  0  0  0
  1 27  1  0  0  0  0
  2  3  2  0  0  0  0
  2 19  1  0  0  0  0
  3  4  1  0  0  0  0
  3  7  1  0  0  0  0
  4  5  2  0  0  0  0
  4 28  1  0  0  0  0
  5  6  1  0  0  0  0
  5 17  1  0  0  0  0
  6 47  1  0  0  0  0
  7  8  1  0  0  0  0
  7 30  1  0  0  0  0
  7 31  1  0  0  0  0
  8  9  1  0  0  0  0
  8 11  2  0  0  0  0
  9 10  1  0  0  0  0
  9 32  1  0  0  0  0
 10 12  1  0  0  0  0
 10 16  2  0  0  0  0
 12 13  2  0  0  0  0
 13 14  1  0  0  0  0
 13 23  1  0  0  0  0
 14 15  2  0  0  0  0
 14 22  1  0  0  0  0
 15 16  1  0  0  0  0
 15 21  1  0  0  0  0
 16 29  1  0  0  0  0
 17 18  1  0  0  0  0
 18 33  1  0  0  0  0
 18 34  1  0  0  0  0
 18 35  1  0  0  0  0
 19 20  1  0  0  0  0
 20 36  1  0  0  0  0
 20 37  1  0  0  0  0
 20 38  1  0  0  0  0
 21 39  1  0  0  0  0
 21 40  1  0  0  0  0
 22 26  3  0  0  0  0
 23 24  1  0  0  0  0
 24 25  1  0  0  0  0
 24 41  1  0  0  0  0
 24 42  1  0  0  0  0
 25 43  1  0  0  0  0
 25 44  1  0  0  0  0
 25 45  1  0  0  0  0
 46 47  2  0  0  0  0
 47 48  1  0  0  0  0
M  CHG  2  47   1  48  -1
M  END
$$$$
