28
                    3D
 Schrodinger Suite 2022-3.
 53 56  0  0  1  0  0  0  0  0999 V2000
    1.4840   29.0030    6.8780 C   0  0  0  0  0  0  0  0  0  0  0  0
   -1.9370   31.6660    8.0280 C   0  0  0  0  0  0  0  0  0  0  0  0
   -0.6880   26.0940    8.7580 C   0  0  0  0  0  0  0  0  0  0  0  0
   -1.3060   25.4290    9.9940 C   0  0  0  0  0  0  0  0  0  0  0  0
   -1.1000   23.9040    9.8360 C   0  0  0  0  0  0  0  0  0  0  0  0
   -1.5760   23.1430   11.0810 C   0  0  0  0  0  0  0  0  0  0  0  0
   -0.9100   23.6710   12.3610 C   0  0  0  0  0  0  0  0  0  0  0  0
   -1.1450   25.1820   12.5230 C   0  0  0  0  0  0  0  0  0  0  0  0
   -0.6540   25.9530   11.2890 C   0  0  0  0  0  0  0  0  0  0  0  0
    4.9050   25.5750    6.2130 C   0  0  0  0  0  0  0  0  0  0  0  0
    4.6770   24.9670    7.4500 C   0  0  0  0  0  0  0  0  0  0  0  0
    3.8030   25.5700    8.3680 C   0  0  0  0  0  0  0  0  0  0  0  0
    3.1510   26.7540    8.0560 C   0  0  0  0  0  0  0  0  0  0  0  0
    0.7040   28.0420    7.5150 N   0  0  0  0  0  0  0  0  0  0  0  0
   -0.4720   28.3950    8.0900 C   0  0  0  0  0  0  0  0  0  0  0  0
   -1.2000   27.4890    8.7570 O   0  0  0  0  0  0  0  0  0  0  0  0
   -0.9290   29.7350    7.9820 C   0  0  0  0  0  0  0  0  0  0  0  0
   -2.0700   30.4020    8.4380 N   0  0  0  0  0  0  0  0  0  0  0  0
   -0.7030   31.8840    7.3200 N   0  0  0  0  0  0  0  0  0  0  0  0
   -0.0630   30.6510    7.2580 C   0  0  0  0  0  0  0  0  0  0  0  0
    1.1400   30.3220    6.6760 N   0  0  0  0  0  0  0  0  0  0  0  0
    2.7270   28.5680    6.4100 N   0  0  0  0  0  0  0  0  0  0  0  0
    3.3580   27.3490    6.7930 C   0  0  0  0  0  0  0  0  0  0  0  0
    4.2590   26.7650    5.8800 C   0  0  0  0  0  0  0  0  0  0  0  0
   -2.6340   32.4790    8.2080 H   0  0  0  0  0  0  0  0  0  0  0  0
   -1.0550   25.6580    7.8070 H   0  0  0  0  0  0  0  0  0  0  0  0
    0.4240   26.0930    8.8180 H   0  0  0  0  0  0  0  0  0  0  0  0
   -2.4020   25.6470   10.0320 H   0  0  0  0  0  0  0  0  0  0  0  0
   -0.0150   23.6890    9.6780 H   0  0  0  0  0  0  0  0  0  0  0  0
   -1.6710   23.5450    8.9510 H   0  0  0  0  0  0  0  0  0  0  0  0
   -1.3410   22.0600   10.9640 H   0  0  0  0  0  0  0  0  0  0  0  0
   -2.6760   23.2620   11.1800 H   0  0  0  0  0  0  0  0  0  0  0  0
    0.1870   23.4750   12.3150 H   0  0  0  0  0  0  0  0  0  0  0  0
   -1.3290   23.1350   13.2430 H   0  0  0  0  0  0  0  0  0  0  0  0
   -0.5880   25.5390   13.4200 H   0  0  0  0  0  0  0  0  0  0  0  0
   -2.2310   25.3730   12.6860 H   0  0  0  0  0  0  0  0  0  0  0  0
   -0.8920   27.0340   11.4110 H   0  0  0  0  0  0  0  0  0  0  0  0
    0.4550   25.8380   11.2230 H   0  0  0  0  0  0  0  0  0  0  0  0
    5.5890   25.1330    5.4770 H   0  0  0  0  0  0  0  0  0  0  0  0
    3.6190   25.1150    9.3480 H   0  0  0  0  0  0  0  0  0  0  0  0
    2.4810   27.2020    8.7900 H   0  0  0  0  0  0  0  0  0  0  0  0
   -0.4260   32.7410    6.8190 H   0  0  0  0  0  0  0  0  0  0  0  0
    3.2590   29.1550    5.7280 H   0  0  0  0  0  0  0  0  0  0  0  0
    4.4490   27.2350    4.9120 H   0  0  0  0  0  0  0  0  0  0  0  0
    5.5480   23.5710    7.9380 S   0  0  0  0  0  0  0  0  0  0  0  0
    6.6610   24.0400    8.7560 O   0  0  0  0  0  0  0  0  0  0  0  0
    5.9130   22.7270    6.7880 O   0  0  0  0  0  0  0  0  0  0  0  0
    4.4950   22.7920    9.9050 H   0  0  0  0  0  0  0  0  0  0  0  0
    4.5640   22.5410    8.8710 N   0  0  1  0  0  0  0  0  0  0  0  0
    3.2210   22.1850    8.3560 C   0  0  0  0  0  0  0  0  0  0  0  0
    2.8390   21.3160    8.9590 H   0  0  0  0  0  0  0  0  0  0  0  0
    2.4850   23.0250    8.4620 H   0  0  0  0  0  0  0  0  0  0  0  0
    3.2680   21.8640    7.2870 H   0  0  0  0  0  0  0  0  0  0  0  0
  1 14  1  0  0  0  0
  1 21  2  0  0  0  0
  1 22  1  0  0  0  0
  2 18  2  0  0  0  0
  2 19  1  0  0  0  0
  2 25  1  0  0  0  0
  3  4  1  0  0  0  0
  3 16  1  0  0  0  0
  3 26  1  0  0  0  0
  3 27  1  0  0  0  0
  4  5  1  0  0  0  0
  4  9  1  0  0  0  0
  4 28  1  0  0  0  0
  5  6  1  0  0  0  0
  5 29  1  0  0  0  0
  5 30  1  0  0  0  0
  6  7  1  0  0  0  0
  6 31  1  0  0  0  0
  6 32  1  0  0  0  0
  7  8  1  0  0  0  0
  7 33  1  0  0  0  0
  7 34  1  0  0  0  0
  8  9  1  0  0  0  0
  8 35  1  0  0  0  0
  8 36  1  0  0  0  0
  9 37  1  0  0  0  0
  9 38  1  0  0  0  0
 10 11  1  0  0  0  0
 10 24  2  0  0  0  0
 10 39  1  0  0  0  0
 11 12  2  0  0  0  0
 11 45  1  0  0  0  0
 12 13  1  0  0  0  0
 12 40  1  0  0  0  0
 13 23  2  0  0  0  0
 13 41  1  0  0  0  0
 14 15  2  0  0  0  0
 15 16  1  0  0  0  0
 15 17  1  0  0  0  0
 17 18  1  0  0  0  0
 17 20  2  0  0  0  0
 19 20  1  0  0  0  0
 19 42  1  0  0  0  0
 20 21  1  0  0  0  0
 22 23  1  0  0  0  0
 22 43  1  0  0  0  0
 23 24  1  0  0  0  0
 24 44  1  0  0  0  0
 45 46  2  0  0  0  0
 45 47  2  0  0  0  0
 45 49  1  0  0  0  0
 48 49  1  0  0  0  0
 49 50  1  0  0  0  0
 50 51  1  0  0  0  0
 50 52  1  0  0  0  0
 50 53  1  0  0  0  0
M  END
$$$$
