p38a_2aa
 OpenBabel02232411163D
Structure written by MMmdl.
 43 45  0  0  0  0  0  0  0  0999 V2000
   36.3320   35.9730   15.8810 C   0  0  0  0  0  0  0  0  0  0  0  0
   34.5820   35.0900   21.4960 C   0  0  0  0  0  0  0  0  0  0  0  0
   35.6380   35.5250   17.0010 C   0  0  0  0  0  0  0  0  0  0  0  0
   34.3890   39.2700   23.9200 C   0  0  0  0  0  0  0  0  0  0  0  0
   34.1280   39.3080   26.4210 C   0  0  0  0  0  0  0  0  0  0  0  0
   34.7990   37.9570   21.5400 C   0  0  0  0  0  0  0  0  0  0  0  0
   35.1500   37.2440   20.3420 C   0  0  0  0  0  0  0  0  0  0  0  0
   37.6250   36.4630   16.1000 C   0  0  0  0  0  0  0  0  0  0  0  0
   38.2400   36.4790   17.3560 C   0  0  0  0  0  0  0  0  0  0  0  0
   37.5100   36.0550   18.4720 C   0  0  0  0  0  0  0  0  0  0  0  0
   34.5070   37.2400   22.7390 C   0  0  0  0  0  0  0  0  0  0  0  0
   34.7470   39.3750   21.6080 C   0  0  0  0  0  0  0  0  0  0  0  0
   35.0910   35.8920   20.3500 C   0  0  0  0  0  0  0  0  0  0  0  0
   36.2060   35.5820   18.2890 C   0  0  0  0  0  0  0  0  0  0  0  0
   34.1050   35.1140   23.9780 C   0  0  0  0  0  0  0  0  0  0  0  0
   34.4180   35.0190   16.8800 F   0  0  0  0  0  0  0  0  0  0  0  0
   35.4320   35.0230   19.3160 O   0  0  0  0  0  0  0  0  0  0  0  0
   34.5340   40.0400   22.7550 N   0  0  0  0  0  0  0  0  0  0  0  0
   34.3160   33.9100   21.4680 O   0  0  0  0  0  0  0  0  0  0  0  0
   34.4000   35.8430   22.7130 N   0  0  0  0  0  0  0  0  0  0  0  0
   34.2990   37.8940   23.9320 N   0  0  0  0  0  0  0  0  0  0  0  0
   34.4070   39.9690   25.1180 N   0  0  0  0  0  0  0  0  0  0  0  0
   35.8830   35.9690   14.8840 H   0  0  0  0  0  0  0  0  0  0  0  0
   34.8990   40.0780   27.5250 C   0  0  0  0  0  0  0  0  0  0  0  0
   35.4760   37.8240   19.4750 H   0  0  0  0  0  0  0  0  0  0  0  0
   39.2630   36.8470   17.4730 H   0  0  0  0  0  0  0  0  0  0  0  0
   37.9540   36.1200   19.4670 H   0  0  0  0  0  0  0  0  0  0  0  0
   34.8770   39.9750   20.6930 H   0  0  0  0  0  0  0  0  0  0  0  0
   34.8060   35.4540   24.7900 H   0  0  0  0  0  0  0  0  0  0  0  0
   33.0530   35.3210   24.3080 H   0  0  0  0  0  0  0  0  0  0  0  0
   34.2350   34.0100   23.8300 H   0  0  0  0  0  0  0  0  0  0  0  0
   34.1550   40.9760   25.0970 H   0  0  0  0  0  0  0  0  0  0  0  0
   38.2860   36.9720   15.0630 F   0  0  0  0  0  0  0  0  0  0  0  0
   32.6130   39.2660   26.7440 C   0  0  0  0  0  0  0  0  0  0  0  0
   31.8420   38.5980   25.7390 O   0  0  0  0  0  0  0  0  0  0  0  0
   32.4090   37.9250   25.2850 H   0  0  0  0  0  0  0  0  0  0  0  0
   32.4580   38.7240   27.7090 H   0  0  0  0  0  0  0  0  0  0  0  0
   32.1800   40.2940   26.7750 H   0  0  0  0  0  0  0  0  0  0  0  0
   34.2560   41.2960   27.9240 O   0  0  0  0  0  0  0  0  0  0  0  0
   34.9130   39.4790   28.4690 H   0  0  0  0  0  0  0  0  0  0  0  0
   35.9330   40.3200   27.1860 H   0  0  0  0  0  0  0  0  0  0  0  0
   34.0350   41.8370   27.1020 H   0  0  0  0  0  0  0  0  0  0  0  0
   34.5410   38.2560   26.4000 H   0  0  0  0  0  0  0  0  0  0  0  0
  1  3  2  0  0  0  0
  1  8  1  0  0  0  0
  1 23  1  0  0  0  0
  2 13  1  0  0  0  0
  2 19  2  0  0  0  0
  2 20  1  0  0  0  0
  3 14  1  0  0  0  0
  3 16  1  0  0  0  0
  4 18  2  0  0  0  0
  4 21  1  0  0  0  0
  4 22  1  0  0  0  0
  5 22  1  0  0  0  0
  5 24  1  0  0  0  0
  5 34  1  0  0  0  0
  5 43  1  0  0  0  0
  6  7  1  0  0  0  0
  6 11  1  0  0  0  0
  6 12  2  0  0  0  0
  7 13  2  0  0  0  0
  7 25  1  0  0  0  0
  8  9  2  0  0  0  0
  8 33  1  0  0  0  0
  9 10  1  0  0  0  0
  9 26  1  0  0  0  0
 10 14  2  0  0  0  0
 10 27  1  0  0  0  0
 11 20  1  0  0  0  0
 11 21  2  0  0  0  0
 12 18  1  0  0  0  0
 12 28  1  0  0  0  0
 13 17  1  0  0  0  0
 14 17  1  0  0  0  0
 15 20  1  0  0  0  0
 15 29  1  0  0  0  0
 15 30  1  0  0  0  0
 15 31  1  0  0  0  0
 22 32  1  0  0  0  0
 24 39  1  0  0  0  0
 24 40  1  0  0  0  0
 24 41  1  0  0  0  0
 34 35  1  0  0  0  0
 34 37  1  0  0  0  0
 34 38  1  0  0  0  0
 35 36  1  0  0  0  0
 39 42  1  0  0  0  0
M  END
$$$$
