1oiy
 OpenBabel02232411153D
Structure written by MMmdl.
 49 52  0  0  0  0  0  0  0  0999 V2000
    1.7770   28.9210    6.8140 C   0  0  0  0  0  0  0  0  0  0  0  0
   -1.6690   31.5420    8.0150 C   0  0  0  0  0  0  0  0  0  0  0  0
   -0.2130   26.0400    8.8910 C   0  0  0  0  0  0  0  0  0  0  0  0
   -0.9480   25.3340   10.0370 C   0  0  0  0  0  0  0  0  0  0  0  0
   -0.7840   23.8130    9.8120 C   0  0  0  0  0  0  0  0  0  0  0  0
   -1.3710   23.0040   10.9770 C   0  0  0  0  0  0  0  0  0  0  0  0
   -0.7760   23.4430   12.3240 C   0  0  0  0  0  0  0  0  0  0  0  0
   -0.9800   24.9490   12.5530 C   0  0  0  0  0  0  0  0  0  0  0  0
   -0.3800   25.7700   11.4020 C   0  0  0  0  0  0  0  0  0  0  0  0
    5.3810   25.7390    5.7830 C   0  0  0  0  0  0  0  0  0  0  0  0
    5.1670   24.9470    6.9250 C   0  0  0  0  0  0  0  0  0  0  0  0
    4.2530   25.3750    7.8990 C   0  0  0  0  0  0  0  0  0  0  0  0
    3.5480   26.5660    7.7400 C   0  0  0  0  0  0  0  0  0  0  0  0
    1.0500   27.9650    7.5180 N   0  0  0  0  0  0  0  0  0  0  0  0
   -0.1350   28.3020    8.0870 C   0  0  0  0  0  0  0  0  0  0  0  0
   -0.8150   27.3980    8.8100 O   0  0  0  0  0  0  0  0  0  0  0  0
   -0.6440   29.6180    7.9340 C   0  0  0  0  0  0  0  0  0  0  0  0
   -1.7810   30.2740    8.4190 N   0  0  0  0  0  0  0  0  0  0  0  0
   -0.4620   31.7690    7.2630 N   0  0  0  0  0  0  0  0  0  0  0  0
    0.1910   30.5440    7.1860 C   0  0  0  0  0  0  0  0  0  0  0  0
    1.3840   30.2270    6.5840 N   0  0  0  0  0  0  0  0  0  0  0  0
    3.0030   28.5270    6.2840 N   0  0  0  0  0  0  0  0  0  0  0  0
    3.7120   27.3190    6.5640 C   0  0  0  0  0  0  0  0  0  0  0  0
    4.6570   26.9110    5.5970 C   0  0  0  0  0  0  0  0  0  0  0  0
   -2.3620   32.3510    8.2230 H   0  0  0  0  0  0  0  0  0  0  0  0
    0.8740   26.1330    9.1070 H   0  0  0  0  0  0  0  0  0  0  0  0
   -0.4060   25.5730    7.9040 H   0  0  0  0  0  0  0  0  0  0  0  0
   -2.0340   25.5910   10.0140 H   0  0  0  0  0  0  0  0  0  0  0  0
   -1.3020   23.5210    8.8710 H   0  0  0  0  0  0  0  0  0  0  0  0
    0.3030   23.5680    9.7190 H   0  0  0  0  0  0  0  0  0  0  0  0
   -2.4720   23.1540   11.0080 H   0  0  0  0  0  0  0  0  0  0  0  0
   -1.1590   21.9210   10.8210 H   0  0  0  0  0  0  0  0  0  0  0  0
   -1.2640   22.8720   13.1480 H   0  0  0  0  0  0  0  0  0  0  0  0
    0.3160   23.2170   12.3290 H   0  0  0  0  0  0  0  0  0  0  0  0
   -2.0690   25.1650   12.6480 H   0  0  0  0  0  0  0  0  0  0  0  0
   -0.4820   25.2450   13.5050 H   0  0  0  0  0  0  0  0  0  0  0  0
    0.7280   25.6280   11.4140 H   0  0  0  0  0  0  0  0  0  0  0  0
   -0.5980   26.8490   11.5670 H   0  0  0  0  0  0  0  0  0  0  0  0
    6.1180   25.4430    5.0280 H   0  0  0  0  0  0  0  0  0  0  0  0
    4.0670   24.7760    8.7950 H   0  0  0  0  0  0  0  0  0  0  0  0
    2.8720   26.8870    8.5340 H   0  0  0  0  0  0  0  0  0  0  0  0
   -0.1880   32.6480    6.8000 H   0  0  0  0  0  0  0  0  0  0  0  0
    3.5100   29.1910    5.6520 H   0  0  0  0  0  0  0  0  0  0  0  0
    4.8240   27.5100    4.6990 H   0  0  0  0  0  0  0  0  0  0  0  0
    6.1930   22.9670    6.0640 O   0  0  0  0  0  0  0  0  0  0  0  0
    5.8930   23.6530    7.0370 C   0  0  0  0  0  0  0  0  0  0  0  0
    6.3190   23.2490    8.3060 N   0  0  0  0  0  0  0  0  0  0  0  0
    5.8800   23.6230    9.1840 H   0  0  0  0  0  0  0  0  0  0  0  0
    6.6930   22.3040    8.4140 H   0  0  0  0  0  0  0  0  0  0  0  0
  1 14  2  0  0  0  0
  1 21  1  0  0  0  0
  1 22  1  0  0  0  0
  2 18  2  0  0  0  0
  2 19  1  0  0  0  0
  2 25  1  0  0  0  0
  3  4  1  0  0  0  0
  3 16  1  0  0  0  0
  3 26  1  0  0  0  0
  3 27  1  0  0  0  0
  4  5  1  0  0  0  0
  4  9  1  0  0  0  0
  4 28  1  0  0  0  0
  5  6  1  0  0  0  0
  5 29  1  0  0  0  0
  5 30  1  0  0  0  0
  6  7  1  0  0  0  0
  6 31  1  0  0  0  0
  6 32  1  0  0  0  0
  7  8  1  0  0  0  0
  7 33  1  0  0  0  0
  7 34  1  0  0  0  0
  8  9  1  0  0  0  0
  8 35  1  0  0  0  0
  8 36  1  0  0  0  0
  9 37  1  0  0  0  0
  9 38  1  0  0  0  0
 10 11  2  0  0  0  0
 10 24  1  0  0  0  0
 10 39  1  0  0  0  0
 11 12  1  0  0  0  0
 11 46  1  0  0  0  0
 12 13  2  0  0  0  0
 12 40  1  0  0  0  0
 13 23  1  0  0  0  0
 13 41  1  0  0  0  0
 14 15  1  0  0  0  0
 15 16  1  0  0  0  0
 15 17  2  0  0  0  0
 17 18  1  0  0  0  0
 17 20  1  0  0  0  0
 19 20  1  0  0  0  0
 19 42  1  0  0  0  0
 20 21  2  0  0  0  0
 22 23  1  0  0  0  0
 22 43  1  0  0  0  0
 23 24  2  0  0  0  0
 24 44  1  0  0  0  0
 45 46  2  0  0  0  0
 46 47  1  0  0  0  0
 47 48  1  0  0  0  0
 47 49  1  0  0  0  0
M  END
$$$$
