p38a_2ee
 OpenBabel02232411163D
Structure written by MMmdl.
 52 55  0  0  0  0  0  0  0  0999 V2000
   38.2750   36.5520   17.1390 C   0  0  0  0  0  0  0  0  0  0  0  0
   34.5560   35.0920   21.1810 C   0  0  0  0  0  0  0  0  0  0  0  0
   37.4740   36.0940   18.1820 C   0  0  0  0  0  0  0  0  0  0  0  0
   33.9700   39.1480   23.7550 C   0  0  0  0  0  0  0  0  0  0  0  0
   34.6200   37.9720   21.3440 C   0  0  0  0  0  0  0  0  0  0  0  0
   35.0020   37.3250   20.1190 C   0  0  0  0  0  0  0  0  0  0  0  0
   37.6440   36.7280   15.9000 C   0  0  0  0  0  0  0  0  0  0  0  0
   36.2940   36.4450   15.6750 C   0  0  0  0  0  0  0  0  0  0  0  0
   35.5140   35.9730   16.7350 C   0  0  0  0  0  0  0  0  0  0  0  0
   34.2870   37.1880   22.4890 C   0  0  0  0  0  0  0  0  0  0  0  0
   34.5740   39.3840   21.5000 C   0  0  0  0  0  0  0  0  0  0  0  0
   35.0010   35.9730   20.0690 C   0  0  0  0  0  0  0  0  0  0  0  0
   36.1100   35.7900   17.9860 C   0  0  0  0  0  0  0  0  0  0  0  0
   33.9050   34.9990   23.6200 C   0  0  0  0  0  0  0  0  0  0  0  0
   37.9900   35.9420   19.3940 F   0  0  0  0  0  0  0  0  0  0  0  0
   35.3690   35.1630   18.9960 O   0  0  0  0  0  0  0  0  0  0  0  0
   34.2680   39.9840   22.6600 N   0  0  0  0  0  0  0  0  0  0  0  0
   34.4330   33.8880   21.1200 O   0  0  0  0  0  0  0  0  0  0  0  0
   34.2610   35.7860   22.4060 N   0  0  0  0  0  0  0  0  0  0  0  0
   33.9820   37.7670   23.6940 N   0  0  0  0  0  0  0  0  0  0  0  0
   33.5900   39.7470   24.9340 N   0  0  0  0  0  0  0  0  0  0  0  0
   39.3310   36.7980   17.2870 H   0  0  0  0  0  0  0  0  0  0  0  0
   35.2910   37.9510   19.2720 H   0  0  0  0  0  0  0  0  0  0  0  0
   35.8370   36.6030   14.6960 H   0  0  0  0  0  0  0  0  0  0  0  0
   34.4500   35.7650   16.5810 H   0  0  0  0  0  0  0  0  0  0  0  0
   34.7920   40.0370   20.6390 H   0  0  0  0  0  0  0  0  0  0  0  0
   34.6120   35.2470   24.4580 H   0  0  0  0  0  0  0  0  0  0  0  0
   32.8620   35.2550   23.9520 H   0  0  0  0  0  0  0  0  0  0  0  0
   33.9610   33.9010   23.4030 H   0  0  0  0  0  0  0  0  0  0  0  0
   33.6760   40.7740   25.0460 H   0  0  0  0  0  0  0  0  0  0  0  0
   38.3580   37.2280   14.8950 F   0  0  0  0  0  0  0  0  0  0  0  0
   32.1390   38.8910   28.3730 C   0  0  0  0  0  0  0  0  0  0  0  0
   32.3110   39.6540   27.0440 C   0  0  0  0  0  0  0  0  0  0  0  0
   33.4030   38.9670   26.1940 C   0  0  0  0  0  0  0  0  0  0  0  0
   34.7320   38.8760   26.9790 C   0  0  0  0  0  0  0  0  0  0  0  0
   34.5050   38.1520   28.3190 C   0  0  0  0  0  0  0  0  0  0  0  0
   33.4200   38.7850   29.1280 N   0  0  0  0  0  0  0  0  0  0  0  0
   31.7890   37.8420   28.1540 H   0  0  0  0  0  0  0  0  0  0  0  0
   31.3490   39.3870   28.9890 H   0  0  0  0  0  0  0  0  0  0  0  0
   32.5810   40.7160   27.2450 H   0  0  0  0  0  0  0  0  0  0  0  0
   31.3430   39.6400   26.4870 H   0  0  0  0  0  0  0  0  0  0  0  0
   33.0510   37.9280   25.9330 H   0  0  0  0  0  0  0  0  0  0  0  0
   35.4740   38.2930   26.3820 H   0  0  0  0  0  0  0  0  0  0  0  0
   35.1400   39.8980   27.1500 H   0  0  0  0  0  0  0  0  0  0  0  0
   34.1910   37.0890   28.1200 H   0  0  0  0  0  0  0  0  0  0  0  0
   35.4600   38.1440   28.9050 H   0  0  0  0  0  0  0  0  0  0  0  0
   33.7620   39.6900   30.1580 C   0  0  0  0  0  0  0  0  0  0  0  0
   34.9200   39.7140   30.5660 O   0  0  0  0  0  0  0  0  0  0  0  0
   32.6730   40.4930   30.8050 C   0  0  0  0  0  0  0  0  0  0  0  0
   31.8510   39.8390   31.1960 H   0  0  0  0  0  0  0  0  0  0  0  0
   33.0700   41.0810   31.6720 H   0  0  0  0  0  0  0  0  0  0  0  0
   32.2230   41.2220   30.0870 H   0  0  0  0  0  0  0  0  0  0  0  0
  1  3  2  0  0  0  0
  1  7  1  0  0  0  0
  1 22  1  0  0  0  0
  2 12  1  0  0  0  0
  2 18  2  0  0  0  0
  2 19  1  0  0  0  0
  3 13  1  0  0  0  0
  3 15  1  0  0  0  0
  4 17  2  0  0  0  0
  4 20  1  0  0  0  0
  4 21  1  0  0  0  0
  5  6  1  0  0  0  0
  5 10  1  0  0  0  0
  5 11  2  0  0  0  0
  6 12  2  0  0  0  0
  6 23  1  0  0  0  0
  7  8  2  0  0  0  0
  7 31  1  0  0  0  0
  8  9  1  0  0  0  0
  8 24  1  0  0  0  0
  9 13  2  0  0  0  0
  9 25  1  0  0  0  0
 10 19  1  0  0  0  0
 10 20  2  0  0  0  0
 11 17  1  0  0  0  0
 11 26  1  0  0  0  0
 12 16  1  0  0  0  0
 13 16  1  0  0  0  0
 14 19  1  0  0  0  0
 14 27  1  0  0  0  0
 14 28  1  0  0  0  0
 14 29  1  0  0  0  0
 21 30  1  0  0  0  0
 21 34  1  0  0  0  0
 32 33  1  0  0  0  0
 32 37  1  0  0  0  0
 32 38  1  0  0  0  0
 32 39  1  0  0  0  0
 33 34  1  0  0  0  0
 33 40  1  0  0  0  0
 33 41  1  0  0  0  0
 34 35  1  0  0  0  0
 34 42  1  0  0  0  0
 35 36  1  0  0  0  0
 35 43  1  0  0  0  0
 35 44  1  0  0  0  0
 36 37  1  0  0  0  0
 36 45  1  0  0  0  0
 36 46  1  0  0  0  0
 37 47  1  0  0  0  0
 47 48  2  0  0  0  0
 47 49  1  0  0  0  0
 49 50  1  0  0  0  0
 49 51  1  0  0  0  0
 49 52  1  0  0  0  0
M  END
$$$$
