CAT-13c
 OpenBabel02232411143D
Structure written by MMmdl.
 45 47  0  0  1  0  0  0  0  0999 V2000
   16.8010   -4.2790   -1.1580 C   0  0  0  0  0  0  0  0  0  0  0  0
   15.2800   -4.1310   -1.2480 C   0  0  0  0  0  0  0  0  0  0  0  0
   14.5620   -5.1040   -0.3020 C   0  0  0  0  0  0  0  0  0  0  0  0
   14.8860   -2.6500   -0.9470 C   0  0  2  0  0  0  0  0  0  0  0  0
   15.3820   -1.6000   -1.9270 C   0  0  0  0  0  0  0  0  0  0  0  0
   15.9590   -1.9270   -3.1600 C   0  0  0  0  0  0  0  0  0  0  0  0
   16.3720   -0.9040   -4.0230 C   0  0  0  0  0  0  0  0  0  0  0  0
   16.2060    0.4390   -3.6780 C   0  0  0  0  0  0  0  0  0  0  0  0
   15.6180    0.7820   -2.4490 C   0  0  0  0  0  0  0  0  0  0  0  0
   15.3920    2.1880   -2.0430 C   0  0  0  0  0  0  0  0  0  0  0  0
   14.9680    3.1550   -2.9700 C   0  0  0  0  0  0  0  0  0  0  0  0
   14.6580    4.4520   -2.5460 C   0  0  0  0  0  0  0  0  0  0  0  0
   14.7450    4.8000   -1.1940 C   0  0  0  0  0  0  0  0  0  0  0  0
   15.1770    3.8330   -0.2850 C   0  0  0  0  0  0  0  0  0  0  0  0
   15.2120    4.1960    1.4020 Cl  0  0  0  0  0  0  0  0  0  0  0  0
   15.5340    2.5480   -0.6910 C   0  0  0  0  0  0  0  0  0  0  0  0
   15.2050   -0.2490   -1.5910 C   0  0  0  0  0  0  0  0  0  0  0  0
   15.3150   -2.2920    0.4610 N   0  3  0  0  0  0  0  0  0  0  0  0
   14.2090   -2.3400    1.3210 C   0  0  0  0  0  0  0  0  0  0  0  0
   14.3210   -2.4160    2.6790 N   0  0  0  0  0  0  0  0  0  0  0  0
   13.0310   -2.3780    0.5800 N   0  0  0  0  0  0  0  0  0  0  0  0
   11.6890   -2.2330    1.1790 C   0  0  0  0  0  0  0  0  0  0  0  0
   13.3330   -2.5310   -0.8590 C   0  0  0  0  0  0  0  0  0  0  0  0
   12.4780   -2.5320   -1.6850 O   0  0  0  0  0  0  0  0  0  0  0  0
   17.3170   -3.2900   -1.1520 H   0  0  0  0  0  0  0  0  0  0  0  0
   17.0930   -4.8030   -0.2200 H   0  0  0  0  0  0  0  0  0  0  0  0
   17.1830   -4.8590   -2.0220 H   0  0  0  0  0  0  0  0  0  0  0  0
   14.9330   -4.3580   -2.2910 H   0  0  0  0  0  0  0  0  0  0  0  0
   14.9710   -6.1300   -0.4580 H   0  0  0  0  0  0  0  0  0  0  0  0
   14.7240   -4.8390    0.7660 H   0  0  0  0  0  0  0  0  0  0  0  0
   13.4700   -5.1420   -0.5120 H   0  0  0  0  0  0  0  0  0  0  0  0
   16.0970   -2.9650   -3.4650 H   0  0  0  0  0  0  0  0  0  0  0  0
   16.8380   -1.1630   -4.9800 H   0  0  0  0  0  0  0  0  0  0  0  0
   16.5380    1.2150   -4.3750 H   0  0  0  0  0  0  0  0  0  0  0  0
   14.8600    2.8950   -4.0270 H   0  0  0  0  0  0  0  0  0  0  0  0
   14.3180    5.1920   -3.2800 H   0  0  0  0  0  0  0  0  0  0  0  0
   14.4590    5.7990   -0.8600 H   0  0  0  0  0  0  0  0  0  0  0  0
   15.9020    1.8190    0.0330 H   0  0  0  0  0  0  0  0  0  0  0  0
   14.7370   -0.0070   -0.6410 H   0  0  0  0  0  0  0  0  0  0  0  0
   16.2330   -2.6640    0.8310 H   0  0  0  0  0  0  0  0  0  0  0  0
   13.5850   -2.0240    3.3160 H   0  0  0  0  0  0  0  0  0  0  0  0
   10.9410   -2.7860    0.5500 H   0  0  0  0  0  0  0  0  0  0  0  0
   11.6740   -2.6670    2.2150 H   0  0  0  0  0  0  0  0  0  0  0  0
   11.4210   -1.1440    1.2240 H   0  0  0  0  0  0  0  0  0  0  0  0
   15.2890   -2.3580    3.1040 H   0  0  0  0  0  0  0  0  0  0  0  0
  1  2  1  0  0  0  0
  1 25  1  0  0  0  0
  1 26  1  0  0  0  0
  1 27  1  0  0  0  0
  2  3  1  0  0  0  0
  2 28  1  0  0  0  0
  3 29  1  0  0  0  0
  3 30  1  0  0  0  0
  3 31  1  0  0  0  0
  4  2  1  6  0  0  0
  4  5  1  0  0  0  0
  4 18  1  0  0  0  0
  4 23  1  0  0  0  0
  5  6  2  0  0  0  0
  5 17  1  0  0  0  0
  6  7  1  0  0  0  0
  6 32  1  0  0  0  0
  7  8  2  0  0  0  0
  7 33  1  0  0  0  0
  8  9  1  0  0  0  0
  8 34  1  0  0  0  0
  9 10  1  0  0  0  0
  9 17  2  0  0  0  0
 10 11  2  0  0  0  0
 10 16  1  0  0  0  0
 11 12  1  0  0  0  0
 11 35  1  0  0  0  0
 12 13  2  0  0  0  0
 12 36  1  0  0  0  0
 13 14  1  0  0  0  0
 13 37  1  0  0  0  0
 14 15  1  0  0  0  0
 14 16  2  0  0  0  0
 16 38  1  0  0  0  0
 17 39  1  0  0  0  0
 18 19  2  0  0  0  0
 18 40  1  0  0  0  0
 19 20  1  0  0  0  0
 19 21  1  0  0  0  0
 20 41  1  0  0  0  0
 20 45  1  0  0  0  0
 21 22  1  0  0  0  0
 21 23  1  0  0  0  0
 22 42  1  0  0  0  0
 22 43  1  0  0  0  0
 22 44  1  0  0  0  0
 23 24  2  0  0  0  0
M  CHG  1  18   1
M  END
$$$$
