p38a_3flw
 OpenBabel02232411163D
Structure written by MMmdl.
 49 51  0  0  0  0  0  0  0  0999 V2000
   38.2410   36.5080   17.1890 C   0  0  0  0  0  0  0  0  0  0  0  0
   37.6060   36.6730   15.9510 C   0  0  0  0  0  0  0  0  0  0  0  0
   33.9170   39.9970   27.4800 C   0  0  0  0  0  0  0  0  0  0  0  0
   33.2920   39.5520   28.8080 C   0  0  0  0  0  0  0  0  0  0  0  0
   31.8170   39.5790   26.0870 C   0  0  0  0  0  0  0  0  0  0  0  0
   34.3430   35.0760   23.8330 C   0  0  0  0  0  0  0  0  0  0  0  0
   37.9660   35.9240   19.4510 F   0  0  0  0  0  0  0  0  0  0  0  0
   37.4420   36.0690   18.2410 C   0  0  0  0  0  0  0  0  0  0  0  0
   38.3200   37.1580   14.9380 F   0  0  0  0  0  0  0  0  0  0  0  0
   36.2540   36.3940   15.7360 C   0  0  0  0  0  0  0  0  0  0  0  0
   35.4750   35.9440   16.8070 C   0  0  0  0  0  0  0  0  0  0  0  0
   36.0730   35.7750   18.0590 C   0  0  0  0  0  0  0  0  0  0  0  0
   35.3250   35.1780   19.0820 O   0  0  0  0  0  0  0  0  0  0  0  0
   35.0340   35.9980   20.1710 C   0  0  0  0  0  0  0  0  0  0  0  0
   35.0320   37.3500   20.1970 C   0  0  0  0  0  0  0  0  0  0  0  0
   34.7440   38.0150   21.4390 C   0  0  0  0  0  0  0  0  0  0  0  0
   34.6550   39.4270   21.5540 C   0  0  0  0  0  0  0  0  0  0  0  0
   34.4030   40.0430   22.7190 N   0  0  0  0  0  0  0  0  0  0  0  0
   34.6660   35.1420   21.3310 C   0  0  0  0  0  0  0  0  0  0  0  0
   34.4790   33.9450   21.2920 O   0  0  0  0  0  0  0  0  0  0  0  0
   34.5350   35.8520   22.5760 N   0  0  0  0  0  0  0  0  0  0  0  0
   34.5420   37.2550   22.6320 C   0  0  0  0  0  0  0  0  0  0  0  0
   34.3430   37.8610   23.8480 N   0  0  0  0  0  0  0  0  0  0  0  0
   34.2540   39.2330   23.8610 C   0  0  0  0  0  0  0  0  0  0  0  0
   34.0950   39.9020   25.0710 N   0  0  0  0  0  0  0  0  0  0  0  0
   33.3380   39.3080   26.2170 C   0  0  0  0  0  0  0  0  0  0  0  0
   31.1630   39.2510   24.7410 C   0  0  0  0  0  0  0  0  0  0  0  0
   31.3620   37.9040   24.2910 O   0  0  0  0  0  0  0  0  0  0  0  0
   33.3260   40.6370   29.7570 O   0  0  0  0  0  0  0  0  0  0  0  0
   39.2990   36.7500   17.3280 H   0  0  0  0  0  0  0  0  0  0  0  0
   33.7770   41.1040   27.3880 H   0  0  0  0  0  0  0  0  0  0  0  0
   35.0190   39.8010   27.5070 H   0  0  0  0  0  0  0  0  0  0  0  0
   32.2330   39.2300   28.6970 H   0  0  0  0  0  0  0  0  0  0  0  0
   33.8990   38.7570   29.3010 H   0  0  0  0  0  0  0  0  0  0  0  0
   31.2950   38.9980   26.8850 H   0  0  0  0  0  0  0  0  0  0  0  0
   31.6500   40.6690   26.2730 H   0  0  0  0  0  0  0  0  0  0  0  0
   33.3570   35.3360   24.3070 H   0  0  0  0  0  0  0  0  0  0  0  0
   34.3640   33.9760   23.6170 H   0  0  0  0  0  0  0  0  0  0  0  0
   35.1590   35.3270   24.5630 H   0  0  0  0  0  0  0  0  0  0  0  0
   35.7950   36.5390   14.7560 H   0  0  0  0  0  0  0  0  0  0  0  0
   34.4090   35.7440   16.6580 H   0  0  0  0  0  0  0  0  0  0  0  0
   35.2530   37.9640   19.3210 H   0  0  0  0  0  0  0  0  0  0  0  0
   34.7730   40.0660   20.6630 H   0  0  0  0  0  0  0  0  0  0  0  0
   33.9720   40.9390   25.0240 H   0  0  0  0  0  0  0  0  0  0  0  0
   33.5260   38.2040   26.2710 H   0  0  0  0  0  0  0  0  0  0  0  0
   30.0600   39.4120   24.8210 H   0  0  0  0  0  0  0  0  0  0  0  0
   31.5990   39.8550   23.9150 H   0  0  0  0  0  0  0  0  0  0  0  0
   31.3120   37.2850   25.0560 H   0  0  0  0  0  0  0  0  0  0  0  0
   32.8570   41.4310   29.3420 H   0  0  0  0  0  0  0  0  0  0  0  0
  1  2  2  0  0  0  0
  1  8  1  0  0  0  0
  1 30  1  0  0  0  0
  2  9  1  0  0  0  0
  2 10  1  0  0  0  0
  3  4  1  0  0  0  0
  3 26  1  0  0  0  0
  3 31  1  0  0  0  0
  3 32  1  0  0  0  0
  4 29  1  0  0  0  0
  4 33  1  0  0  0  0
  4 34  1  0  0  0  0
  5 26  1  0  0  0  0
  5 27  1  0  0  0  0
  5 35  1  0  0  0  0
  5 36  1  0  0  0  0
  6 21  1  0  0  0  0
  6 37  1  0  0  0  0
  6 38  1  0  0  0  0
  6 39  1  0  0  0  0
  7  8  1  0  0  0  0
  8 12  2  0  0  0  0
 10 11  2  0  0  0  0
 10 40  1  0  0  0  0
 11 12  1  0  0  0  0
 11 41  1  0  0  0  0
 12 13  1  0  0  0  0
 13 14  1  0  0  0  0
 14 15  2  0  0  0  0
 14 19  1  0  0  0  0
 15 16  1  0  0  0  0
 15 42  1  0  0  0  0
 16 17  2  0  0  0  0
 16 22  1  0  0  0  0
 17 18  1  0  0  0  0
 17 43  1  0  0  0  0
 18 24  2  0  0  0  0
 19 20  2  0  0  0  0
 19 21  1  0  0  0  0
 21 22  1  0  0  0  0
 22 23  2  0  0  0  0
 23 24  1  0  0  0  0
 24 25  1  0  0  0  0
 25 26  1  0  0  0  0
 25 44  1  0  0  0  0
 26 45  1  0  0  0  0
 27 28  1  0  0  0  0
 27 46  1  0  0  0  0
 27 47  1  0  0  0  0
 28 48  1  0  0  0  0
 29 49  1  0  0  0  0
M  END
$$$$
