p38a_3fly
 OpenBabel02232411163D
Structure written by MMmdl.
 41 43  0  0  0  0  0  0  0  0999 V2000
   34.8010   39.2900   21.6160 C   0  0  0  0  0  0  0  0  0  0  0  0
   34.0930   37.1490   22.5050 C   0  0  0  0  0  0  0  0  0  0  0  0
   34.3650   39.9240   22.7110 N   0  0  0  0  0  0  0  0  0  0  0  0
   34.7260   37.8790   21.4570 C   0  0  0  0  0  0  0  0  0  0  0  0
   35.2710   37.1930   20.3170 C   0  0  0  0  0  0  0  0  0  0  0  0
   35.1500   35.8480   20.2500 C   0  0  0  0  0  0  0  0  0  0  0  0
   34.4240   35.0240   21.2540 C   0  0  0  0  0  0  0  0  0  0  0  0
   33.8020   39.1330   23.7390 C   0  0  0  0  0  0  0  0  0  0  0  0
   32.6560   39.2460   26.0290 C   0  0  0  0  0  0  0  0  0  0  0  0
   31.2480   38.8400   25.5750 C   0  0  0  0  0  0  0  0  0  0  0  0
   33.3910   38.1060   26.7390 C   0  0  0  0  0  0  0  0  0  0  0  0
   36.3450   35.6040   18.2190 C   0  0  0  0  0  0  0  0  0  0  0  0
   37.6410   36.1080   18.3600 C   0  0  0  0  0  0  0  0  0  0  0  0
   38.3160   36.5680   17.2240 C   0  0  0  0  0  0  0  0  0  0  0  0
   37.6560   36.5570   15.9930 C   0  0  0  0  0  0  0  0  0  0  0  0
   36.3650   36.0430   15.8140 C   0  0  0  0  0  0  0  0  0  0  0  0
   35.7280   35.5580   16.9520 C   0  0  0  0  0  0  0  0  0  0  0  0
   38.2670   37.0920   14.9380 F   0  0  0  0  0  0  0  0  0  0  0  0
   34.5170   35.0230   16.8690 F   0  0  0  0  0  0  0  0  0  0  0  0
   35.6390   34.9920   19.2630 O   0  0  0  0  0  0  0  0  0  0  0  0
   34.2250   33.8320   21.1680 O   0  0  0  0  0  0  0  0  0  0  0  0
   33.9350   35.7560   22.3910 N   0  0  0  0  0  0  0  0  0  0  0  0
   33.2480   35.0170   23.4870 C   0  0  0  0  0  0  0  0  0  0  0  0
   33.6270   37.7660   23.6380 N   0  0  0  0  0  0  0  0  0  0  0  0
   33.4630   39.7980   24.8900 N   0  0  0  0  0  0  0  0  0  0  0  0
   35.2270   39.9070   20.8090 H   0  0  0  0  0  0  0  0  0  0  0  0
   35.7750   37.7880   19.5520 H   0  0  0  0  0  0  0  0  0  0  0  0
   32.5660   40.1170   26.7470 H   0  0  0  0  0  0  0  0  0  0  0  0
   30.7620   39.6680   25.0160 H   0  0  0  0  0  0  0  0  0  0  0  0
   31.2790   37.9330   24.9290 H   0  0  0  0  0  0  0  0  0  0  0  0
   30.6320   38.6030   26.4720 H   0  0  0  0  0  0  0  0  0  0  0  0
   34.4460   38.3900   26.9510 H   0  0  0  0  0  0  0  0  0  0  0  0
   32.8800   37.8880   27.7060 H   0  0  0  0  0  0  0  0  0  0  0  0
   33.3850   37.1750   26.1260 H   0  0  0  0  0  0  0  0  0  0  0  0
   38.1230   36.1680   19.3390 H   0  0  0  0  0  0  0  0  0  0  0  0
   39.3340   36.9580   17.3110 H   0  0  0  0  0  0  0  0  0  0  0  0
   35.8780   36.0450   14.8360 H   0  0  0  0  0  0  0  0  0  0  0  0
   33.1540   33.9310   23.2260 H   0  0  0  0  0  0  0  0  0  0  0  0
   33.8320   35.1170   24.4410 H   0  0  0  0  0  0  0  0  0  0  0  0
   32.2220   35.4450   23.6550 H   0  0  0  0  0  0  0  0  0  0  0  0
   33.5870   40.8290   24.9260 H   0  0  0  0  0  0  0  0  0  0  0  0
  1  3  2  0  0  0  0
  1  4  1  0  0  0  0
  1 26  1  0  0  0  0
  2  4  2  0  0  0  0
  2 22  1  0  0  0  0
  2 24  1  0  0  0  0
  3  8  1  0  0  0  0
  4  5  1  0  0  0  0
  5  6  2  0  0  0  0
  5 27  1  0  0  0  0
  6  7  1  0  0  0  0
  6 20  1  0  0  0  0
  7 21  2  0  0  0  0
  7 22  1  0  0  0  0
  8 24  2  0  0  0  0
  8 25  1  0  0  0  0
  9 10  1  0  0  0  0
  9 11  1  0  0  0  0
  9 25  1  0  0  0  0
  9 28  1  0  0  0  0
 10 29  1  0  0  0  0
 10 30  1  0  0  0  0
 10 31  1  0  0  0  0
 11 32  1  0  0  0  0
 11 33  1  0  0  0  0
 11 34  1  0  0  0  0
 12 13  2  0  0  0  0
 12 17  1  0  0  0  0
 12 20  1  0  0  0  0
 13 14  1  0  0  0  0
 13 35  1  0  0  0  0
 14 15  2  0  0  0  0
 14 36  1  0  0  0  0
 15 16  1  0  0  0  0
 15 18  1  0  0  0  0
 16 17  2  0  0  0  0
 16 37  1  0  0  0  0
 17 19  1  0  0  0  0
 22 23  1  0  0  0  0
 23 38  1  0  0  0  0
 23 39  1  0  0  0  0
 23 40  1  0  0  0  0
 25 41  1  0  0  0  0
M  END
$$$$
