18636-1
 OpenBabel02232411163D
Structure written by MMmdl.
 38 39  0  0  0  0  0  0  0  0999 V2000
   23.8960   12.4880   30.3520 C   0  0  0  0  0  0  0  0  0  0  0  0
   23.4640   11.0460   30.5320 C   0  0  0  0  0  0  0  0  0  0  0  0
   22.1970   11.1710   31.3020 O   0  0  0  0  0  0  0  0  0  0  0  0
   21.5550   10.0450   31.6720 C   0  0  0  0  0  0  0  0  0  0  0  0
   22.0470    8.8420   31.2880 N   0  0  0  0  0  0  0  0  0  0  0  0
   21.3080    7.7170   31.6170 C   0  0  0  0  0  0  0  0  0  0  0  0
   20.1270    7.7750   32.3440 C   0  0  0  0  0  0  0  0  0  0  0  0
   19.6310    9.0390   32.7670 C   0  0  0  0  0  0  0  0  0  0  0  0
   18.4630    9.1000   33.4820 N   0  0  0  0  0  0  0  0  0  0  0  0
   20.3550   10.2240   32.4230 C   0  0  0  0  0  0  0  0  0  0  0  0
   19.9340   11.5310   32.7490 C   0  0  0  0  0  0  0  0  0  0  0  0
   19.6350   12.6290   32.9760 N   0  0  0  0  0  0  0  0  0  0  0  0
   21.9030    6.5330   31.1040 N   0  0  0  0  0  0  0  0  0  0  0  0
   21.2300    5.3110   30.8780 C   0  0  0  0  0  0  0  0  0  0  0  0
   20.1150    5.1040   31.3100 O   0  0  0  0  0  0  0  0  0  0  0  0
   21.9430    4.3090   29.9810 C   0  0  0  0  0  0  0  0  0  0  0  0
   23.4370    4.2260   30.0950 C   0  0  0  0  0  0  0  0  0  0  0  0
   24.0920    3.2160   30.8200 C   0  0  0  0  0  0  0  0  0  0  0  0
   23.1290    1.8000   31.6570 Br  0  0  0  0  0  0  0  0  0  0  0  0
   25.4870    3.1780   30.9320 C   0  0  0  0  0  0  0  0  0  0  0  0
   26.2640    4.1500   30.3000 C   0  0  0  0  0  0  0  0  0  0  0  0
   25.6210    5.1350   29.5490 C   0  0  0  0  0  0  0  0  0  0  0  0
   26.6610    6.4700   28.6680 Br  0  0  0  0  0  0  0  0  0  0  0  0
   24.2330    5.1750   29.4270 C   0  0  0  0  0  0  0  0  0  0  0  0
   24.8310   12.5080   29.7360 H   0  0  0  0  0  0  0  0  0  0  0  0
   23.1150   13.0750   29.8120 H   0  0  0  0  0  0  0  0  0  0  0  0
   24.1030   12.9790   31.3290 H   0  0  0  0  0  0  0  0  0  0  0  0
   23.2240   10.5490   29.5660 H   0  0  0  0  0  0  0  0  0  0  0  0
   24.1820   10.4560   31.1440 H   0  0  0  0  0  0  0  0  0  0  0  0
   19.5590    6.8720   32.5790 H   0  0  0  0  0  0  0  0  0  0  0  0
   17.9570    8.2340   33.7530 H   0  0  0  0  0  0  0  0  0  0  0  0
   18.0580    9.9930   33.7650 H   0  0  0  0  0  0  0  0  0  0  0  0
   22.8480    6.6700   30.7020 H   0  0  0  0  0  0  0  0  0  0  0  0
   21.4890    3.2960   30.1840 H   0  0  0  0  0  0  0  0  0  0  0  0
   21.6590    4.5960   28.9300 H   0  0  0  0  0  0  0  0  0  0  0  0
   25.9840    2.3860   31.5120 H   0  0  0  0  0  0  0  0  0  0  0  0
   27.3580    4.1250   30.3950 H   0  0  0  0  0  0  0  0  0  0  0  0
   23.7680    5.9530   28.8100 H   0  0  0  0  0  0  0  0  0  0  0  0
  1  2  1  0  0  0  0
  1 25  1  0  0  0  0
  1 26  1  0  0  0  0
  1 27  1  0  0  0  0
  2  3  1  0  0  0  0
  2 28  1  0  0  0  0
  2 29  1  0  0  0  0
  3  4  1  0  0  0  0
  4 10  2  0  0  0  0
  4  5  1  0  0  0  0
  5  6  2  0  0  0  0
  6  7  1  0  0  0  0
  6 13  1  0  0  0  0
  7  8  2  0  0  0  0
  7 30  1  0  0  0  0
  8  9  1  0  0  0  0
  8 10  1  0  0  0  0
  9 31  1  0  0  0  0
  9 32  1  0  0  0  0
 10 11  1  0  0  0  0
 11 12  3  0  0  0  0
 13 14  1  0  0  0  0
 13 33  1  0  0  0  0
 14 15  2  0  0  0  0
 14 16  1  0  0  0  0
 16 17  1  0  0  0  0
 16 34  1  0  0  0  0
 16 35  1  0  0  0  0
 17 24  2  0  0  0  0
 17 18  1  0  0  0  0
 18 19  1  0  0  0  0
 18 20  2  0  0  0  0
 20 21  1  0  0  0  0
 20 36  1  0  0  0  0
 21 22  2  0  0  0  0
 21 37  1  0  0  0  0
 22 23  1  0  0  0  0
 22 24  1  0  0  0  0
 24 38  1  0  0  0  0
M  END
$$$$
