p38a_2l
 OpenBabel02232411163D
Structure written by MMmdl.
 49 52  0  0  0  0  0  0  0  0999 V2000
   36.3690   36.0200   15.8250 C   0  0  0  0  0  0  0  0  0  0  0  0
   34.5580   35.0170   21.3900 C   0  0  0  0  0  0  0  0  0  0  0  0
   35.6790   35.5570   16.9400 C   0  0  0  0  0  0  0  0  0  0  0  0
   34.1320   39.1060   23.9360 C   0  0  0  0  0  0  0  0  0  0  0  0
   34.7630   37.8800   21.5480 C   0  0  0  0  0  0  0  0  0  0  0  0
   35.1710   37.2130   20.3410 C   0  0  0  0  0  0  0  0  0  0  0  0
   37.6590   36.5180   16.0510 C   0  0  0  0  0  0  0  0  0  0  0  0
   38.2710   36.5270   17.3070 C   0  0  0  0  0  0  0  0  0  0  0  0
   37.5430   36.0900   18.4200 C   0  0  0  0  0  0  0  0  0  0  0  0
   34.3920   37.1190   22.6970 C   0  0  0  0  0  0  0  0  0  0  0  0
   34.7340   39.2950   21.6770 C   0  0  0  0  0  0  0  0  0  0  0  0
   35.1050   35.8630   20.2930 C   0  0  0  0  0  0  0  0  0  0  0  0
   36.2440   35.6090   18.2310 C   0  0  0  0  0  0  0  0  0  0  0  0
   34.4640   35.0390   16.8140 F   0  0  0  0  0  0  0  0  0  0  0  0
   35.4740   35.0240   19.2430 O   0  0  0  0  0  0  0  0  0  0  0  0
   34.4260   39.9200   22.8240 N   0  0  0  0  0  0  0  0  0  0  0  0
   34.3230   33.8320   21.3020 O   0  0  0  0  0  0  0  0  0  0  0  0
   34.2770   35.7210   22.6140 N   0  0  0  0  0  0  0  0  0  0  0  0
   34.1050   37.7260   23.8940 N   0  0  0  0  0  0  0  0  0  0  0  0
   33.7830   39.7420   25.1080 N   0  0  0  0  0  0  0  0  0  0  0  0
   35.9220   36.0210   14.8280 H   0  0  0  0  0  0  0  0  0  0  0  0
   35.5370   37.8250   19.5130 H   0  0  0  0  0  0  0  0  0  0  0  0
   39.2930   36.8970   17.4290 H   0  0  0  0  0  0  0  0  0  0  0  0
   37.9860   36.1510   19.4160 H   0  0  0  0  0  0  0  0  0  0  0  0
   34.9690   39.9300   20.8060 H   0  0  0  0  0  0  0  0  0  0  0  0
   33.8790   40.7750   25.1730 H   0  0  0  0  0  0  0  0  0  0  0  0
   38.3170   37.0390   15.0180 F   0  0  0  0  0  0  0  0  0  0  0  0
   32.5980   39.0660   28.6750 C   0  0  0  0  0  0  0  0  0  0  0  0
   32.6020   39.6760   27.2680 C   0  0  0  0  0  0  0  0  0  0  0  0
   33.7180   39.0290   26.4200 C   0  0  0  0  0  0  0  0  0  0  0  0
   35.0760   39.1350   27.1510 C   0  0  0  0  0  0  0  0  0  0  0  0
   34.9550   38.5580   28.5660 C   0  0  0  0  0  0  0  0  0  0  0  0
   33.8900   39.1890   29.3130 O   0  0  0  0  0  0  0  0  0  0  0  0
   32.3100   37.9890   28.6440 H   0  0  0  0  0  0  0  0  0  0  0  0
   31.9380   39.6440   29.3630 H   0  0  0  0  0  0  0  0  0  0  0  0
   32.7690   40.7770   27.3390 H   0  0  0  0  0  0  0  0  0  0  0  0
   31.6110   39.5020   26.7830 H   0  0  0  0  0  0  0  0  0  0  0  0
   33.4690   37.9450   26.2430 H   0  0  0  0  0  0  0  0  0  0  0  0
   35.8520   38.5650   26.5880 H   0  0  0  0  0  0  0  0  0  0  0  0
   35.3930   40.2040   27.2040 H   0  0  0  0  0  0  0  0  0  0  0  0
   34.7710   37.4590   28.5340 H   0  0  0  0  0  0  0  0  0  0  0  0
   35.8530   38.8040   29.1800 H   0  0  0  0  0  0  0  0  0  0  0  0
   33.9890   34.9150   23.8500 C   0  0  0  0  0  0  0  0  0  0  0  0
   33.3580   35.5300   24.5530 H   0  0  0  0  0  0  0  0  0  0  0  0
   33.4010   34.0060   23.5470 H   0  0  0  0  0  0  0  0  0  0  0  0
   35.2810   34.4980   24.5510 C   0  0  0  0  0  0  0  0  0  0  0  0
   35.8300   33.7260   23.9730 H   0  0  0  0  0  0  0  0  0  0  0  0
   35.9420   35.3770   24.7220 H   0  0  0  0  0  0  0  0  0  0  0  0
   35.0260   34.0690   25.5530 H   0  0  0  0  0  0  0  0  0  0  0  0
  1  3  2  0  0  0  0
  1  7  1  0  0  0  0
  1 21  1  0  0  0  0
  2 12  1  0  0  0  0
  2 17  2  0  0  0  0
  2 18  1  0  0  0  0
  3 13  1  0  0  0  0
  3 14  1  0  0  0  0
  4 16  2  0  0  0  0
  4 19  1  0  0  0  0
  4 20  1  0  0  0  0
  5  6  1  0  0  0  0
  5 10  1  0  0  0  0
  5 11  2  0  0  0  0
  6 12  2  0  0  0  0
  6 22  1  0  0  0  0
  7  8  2  0  0  0  0
  7 27  1  0  0  0  0
  8  9  1  0  0  0  0
  8 23  1  0  0  0  0
  9 13  2  0  0  0  0
  9 24  1  0  0  0  0
 10 18  1  0  0  0  0
 10 19  2  0  0  0  0
 11 16  1  0  0  0  0
 11 25  1  0  0  0  0
 12 15  1  0  0  0  0
 13 15  1  0  0  0  0
 18 43  1  0  0  0  0
 20 26  1  0  0  0  0
 20 30  1  0  0  0  0
 28 29  1  0  0  0  0
 28 33  1  0  0  0  0
 28 34  1  0  0  0  0
 28 35  1  0  0  0  0
 29 30  1  0  0  0  0
 29 36  1  0  0  0  0
 29 37  1  0  0  0  0
 30 31  1  0  0  0  0
 30 38  1  0  0  0  0
 31 32  1  0  0  0  0
 31 39  1  0  0  0  0
 31 40  1  0  0  0  0
 32 33  1  0  0  0  0
 32 41  1  0  0  0  0
 32 42  1  0  0  0  0
 43 44  1  0  0  0  0
 43 45  1  0  0  0  0
 43 46  1  0  0  0  0
 46 47  1  0  0  0  0
 46 48  1  0  0  0  0
 46 49  1  0  0  0  0
M  END
$$$$
