p38a_3fln
 OpenBabel02232411163D
Structure written by MMmdl.
 46 49  0  0  0  0  0  0  0  0999 V2000
   32.5780   39.8150   27.2980 C   0  0  0  0  0  0  0  0  0  0  0  0
   32.4530   39.1620   28.6800 C   0  0  0  0  0  0  0  0  0  0  0  0
   34.6410   38.1580   28.5080 C   0  0  0  0  0  0  0  0  0  0  0  0
   34.8780   38.7600   27.1170 C   0  0  0  0  0  0  0  0  0  0  0  0
   36.3600   36.0180   15.8400 C   0  0  0  0  0  0  0  0  0  0  0  0
   33.7460   38.9740   29.2980 O   0  0  0  0  0  0  0  0  0  0  0  0
   34.5510   35.0110   21.4020 C   0  0  0  0  0  0  0  0  0  0  0  0
   35.6700   35.5600   16.9570 C   0  0  0  0  0  0  0  0  0  0  0  0
   34.0840   39.0940   23.9530 C   0  0  0  0  0  0  0  0  0  0  0  0
   33.5250   38.9860   26.4050 C   0  0  0  0  0  0  0  0  0  0  0  0
   34.7600   37.8770   21.5710 C   0  0  0  0  0  0  0  0  0  0  0  0
   35.1760   37.2100   20.3660 C   0  0  0  0  0  0  0  0  0  0  0  0
   37.6540   36.5070   16.0630 C   0  0  0  0  0  0  0  0  0  0  0  0
   38.2700   36.5140   17.3180 C   0  0  0  0  0  0  0  0  0  0  0  0
   37.5410   36.0820   18.4310 C   0  0  0  0  0  0  0  0  0  0  0  0
   34.3600   37.1150   22.7080 C   0  0  0  0  0  0  0  0  0  0  0  0
   34.7450   39.2910   21.7100 C   0  0  0  0  0  0  0  0  0  0  0  0
   35.1060   35.8600   20.3130 C   0  0  0  0  0  0  0  0  0  0  0  0
   36.2390   35.6070   18.2470 C   0  0  0  0  0  0  0  0  0  0  0  0
   33.8760   34.9430   23.8350 C   0  0  0  0  0  0  0  0  0  0  0  0
   34.4510   35.0510   16.8350 F   0  0  0  0  0  0  0  0  0  0  0  0
   38.3130   37.0220   15.0270 F   0  0  0  0  0  0  0  0  0  0  0  0
   35.4700   35.0230   19.2600 O   0  0  0  0  0  0  0  0  0  0  0  0
   34.4200   39.9110   22.8540 N   0  0  0  0  0  0  0  0  0  0  0  0
   34.3250   33.8230   21.3190 O   0  0  0  0  0  0  0  0  0  0  0  0
   34.2740   35.7150   22.6250 N   0  0  0  0  0  0  0  0  0  0  0  0
   34.0400   37.7140   23.9010 N   0  0  0  0  0  0  0  0  0  0  0  0
   33.7200   39.7250   25.1200 N   0  0  0  0  0  0  0  0  0  0  0  0
   31.5720   39.8770   26.8200 H   0  0  0  0  0  0  0  0  0  0  0  0
   32.9740   40.8530   27.4150 H   0  0  0  0  0  0  0  0  0  0  0  0
   31.9430   39.8430   29.4010 H   0  0  0  0  0  0  0  0  0  0  0  0
   31.9360   38.1770   28.6120 H   0  0  0  0  0  0  0  0  0  0  0  0
   34.2190   37.1290   28.4300 H   0  0  0  0  0  0  0  0  0  0  0  0
   35.5730   38.1720   29.1180 H   0  0  0  0  0  0  0  0  0  0  0  0
   35.4250   39.7280   27.2090 H   0  0  0  0  0  0  0  0  0  0  0  0
   35.5050   38.0550   26.5190 H   0  0  0  0  0  0  0  0  0  0  0  0
   35.9100   36.0210   14.8440 H   0  0  0  0  0  0  0  0  0  0  0  0
   33.0480   37.9900   26.1810 H   0  0  0  0  0  0  0  0  0  0  0  0
   35.5480   37.8230   19.5400 H   0  0  0  0  0  0  0  0  0  0  0  0
   39.2930   36.8800   17.4360 H   0  0  0  0  0  0  0  0  0  0  0  0
   37.9870   36.1400   19.4270 H   0  0  0  0  0  0  0  0  0  0  0  0
   35.0060   39.9280   20.8480 H   0  0  0  0  0  0  0  0  0  0  0  0
   34.5750   35.1780   24.6840 H   0  0  0  0  0  0  0  0  0  0  0  0
   32.8340   35.2240   24.1500 H   0  0  0  0  0  0  0  0  0  0  0  0
   33.9130   33.8430   23.6250 H   0  0  0  0  0  0  0  0  0  0  0  0
   33.8410   40.7540   25.2030 H   0  0  0  0  0  0  0  0  0  0  0  0
  1  2  1  0  0  0  0
  1 10  1  0  0  0  0
  1 29  1  0  0  0  0
  1 30  1  0  0  0  0
  2  6  1  0  0  0  0
  2 31  1  0  0  0  0
  2 32  1  0  0  0  0
  3  4  1  0  0  0  0
  3  6  1  0  0  0  0
  3 33  1  0  0  0  0
  3 34  1  0  0  0  0
  4 10  1  0  0  0  0
  4 35  1  0  0  0  0
  4 36  1  0  0  0  0
  5  8  2  0  0  0  0
  5 13  1  0  0  0  0
  5 37  1  0  0  0  0
  7 18  1  0  0  0  0
  7 25  2  0  0  0  0
  7 26  1  0  0  0  0
  8 19  1  0  0  0  0
  8 21  1  0  0  0  0
  9 24  2  0  0  0  0
  9 27  1  0  0  0  0
  9 28  1  0  0  0  0
 10 28  1  0  0  0  0
 10 38  1  0  0  0  0
 11 12  1  0  0  0  0
 11 16  1  0  0  0  0
 11 17  2  0  0  0  0
 12 18  2  0  0  0  0
 12 39  1  0  0  0  0
 13 14  2  0  0  0  0
 13 22  1  0  0  0  0
 14 15  1  0  0  0  0
 14 40  1  0  0  0  0
 15 19  2  0  0  0  0
 15 41  1  0  0  0  0
 16 26  1  0  0  0  0
 16 27  2  0  0  0  0
 17 24  1  0  0  0  0
 17 42  1  0  0  0  0
 18 23  1  0  0  0  0
 19 23  1  0  0  0  0
 20 26  1  0  0  0  0
 20 43  1  0  0  0  0
 20 44  1  0  0  0  0
 20 45  1  0  0  0  0
 28 46  1  0  0  0  0
M  END
$$$$
