p38a_2x
 OpenBabel02232411163D
Structure written by MMmdl.
 43 46  0  0  1  0  0  0  0  0999 V2000
   38.2940   36.5430   17.1510 C   0  0  0  0  0  0  0  0  0  0  0  0
   34.4750   35.0970   21.1820 C   0  0  0  0  0  0  0  0  0  0  0  0
   37.5100   36.0820   18.2050 C   0  0  0  0  0  0  0  0  0  0  0  0
   33.8610   39.1860   23.6920 C   0  0  0  0  0  0  0  0  0  0  0  0
   34.6060   37.9690   21.3350 C   0  0  0  0  0  0  0  0  0  0  0  0
   35.0480   37.3060   20.1380 C   0  0  0  0  0  0  0  0  0  0  0  0
   37.6470   36.7060   15.9190 C   0  0  0  0  0  0  0  0  0  0  0  0
   36.2990   36.4060   15.7100 C   0  0  0  0  0  0  0  0  0  0  0  0
   35.5360   35.9300   16.7810 C   0  0  0  0  0  0  0  0  0  0  0  0
   34.1420   37.2100   22.4500 C   0  0  0  0  0  0  0  0  0  0  0  0
   34.6210   39.3820   21.4790 C   0  0  0  0  0  0  0  0  0  0  0  0
   35.0130   35.9540   20.0930 C   0  0  0  0  0  0  0  0  0  0  0  0
   36.1480   35.7590   18.0260 C   0  0  0  0  0  0  0  0  0  0  0  0
   33.5180   35.0360   23.5100 C   0  0  0  0  0  0  0  0  0  0  0  0
   38.0390   35.9450   19.4140 F   0  0  0  0  0  0  0  0  0  0  0  0
   35.4310   35.1280   19.0520 O   0  0  0  0  0  0  0  0  0  0  0  0
   34.2710   40.0000   22.6150 N   0  0  0  0  0  0  0  0  0  0  0  0
   34.3670   33.8900   21.1380 O   0  0  0  0  0  0  0  0  0  0  0  0
   34.0680   35.8110   22.3630 N   0  0  0  0  0  0  0  0  0  0  0  0
   33.7650   37.8140   23.6280 N   0  0  0  0  0  0  0  0  0  0  0  0
   33.6040   39.8560   24.8720 N   0  0  0  0  0  0  0  0  0  0  0  0
   39.3470   36.8030   17.2880 H   0  0  0  0  0  0  0  0  0  0  0  0
   35.4060   37.9210   19.3110 H   0  0  0  0  0  0  0  0  0  0  0  0
   35.8300   36.5550   14.7350 H   0  0  0  0  0  0  0  0  0  0  0  0
   34.4730   35.7120   16.6380 H   0  0  0  0  0  0  0  0  0  0  0  0
   34.9190   40.0180   20.6290 H   0  0  0  0  0  0  0  0  0  0  0  0
   34.0130   35.3600   24.4650 H   0  0  0  0  0  0  0  0  0  0  0  0
   32.4130   35.2190   23.5930 H   0  0  0  0  0  0  0  0  0  0  0  0
   33.6990   33.9390   23.3590 H   0  0  0  0  0  0  0  0  0  0  0  0
   33.6600   40.8970   24.8600 H   0  0  0  0  0  0  0  0  0  0  0  0
   38.3450   37.2110   14.9040 F   0  0  0  0  0  0  0  0  0  0  0  0
   32.6490   37.3130   27.3180 O   0  0  0  0  0  0  0  0  0  0  0  0
   31.5180   37.3010   26.4010 C   0  0  0  0  0  0  0  0  0  0  0  0
   31.4890   38.6640   25.6920 C   0  0  0  0  0  0  0  0  0  0  0  0
   32.8420   39.3330   26.0340 C   0  0  1  0  0  0  0  0  0  0  0  0
   33.6300   38.2640   26.8390 C   0  0  0  0  0  0  0  0  0  0  0  0
   30.6370   37.1310   27.0550 H   0  0  0  0  0  0  0  0  0  0  0  0
   31.6790   36.4660   25.6850 H   0  0  0  0  0  0  0  0  0  0  0  0
   31.3510   38.5360   24.5960 H   0  0  0  0  0  0  0  0  0  0  0  0
   30.6490   39.2890   26.0660 H   0  0  0  0  0  0  0  0  0  0  0  0
   32.6620   40.2380   26.6850 H   0  0  0  0  0  0  0  0  0  0  0  0
   34.0910   38.6830   27.7590 H   0  0  0  0  0  0  0  0  0  0  0  0
   34.3690   37.7170   26.2130 H   0  0  0  0  0  0  0  0  0  0  0  0
  1  3  2  0  0  0  0
  1  7  1  0  0  0  0
  1 22  1  0  0  0  0
  2 12  1  0  0  0  0
  2 18  2  0  0  0  0
  2 19  1  0  0  0  0
  3 13  1  0  0  0  0
  3 15  1  0  0  0  0
  4 17  2  0  0  0  0
  4 20  1  0  0  0  0
  4 21  1  0  0  0  0
  5  6  1  0  0  0  0
  5 10  1  0  0  0  0
  5 11  2  0  0  0  0
  6 12  2  0  0  0  0
  6 23  1  0  0  0  0
  7  8  2  0  0  0  0
  7 31  1  0  0  0  0
  8  9  1  0  0  0  0
  8 24  1  0  0  0  0
  9 13  2  0  0  0  0
  9 25  1  0  0  0  0
 10 19  1  0  0  0  0
 10 20  2  0  0  0  0
 11 17  1  0  0  0  0
 11 26  1  0  0  0  0
 12 16  1  0  0  0  0
 13 16  1  0  0  0  0
 14 19  1  0  0  0  0
 14 27  1  0  0  0  0
 14 28  1  0  0  0  0
 14 29  1  0  0  0  0
 21 30  1  0  0  0  0
 21 35  1  0  0  0  0
 32 33  1  0  0  0  0
 32 36  1  0  0  0  0
 33 34  1  0  0  0  0
 33 37  1  0  0  0  0
 33 38  1  0  0  0  0
 34 35  1  0  0  0  0
 34 39  1  0  0  0  0
 34 40  1  0  0  0  0
 35 36  1  0  0  0  0
 35 41  1  1  0  0  0
 36 42  1  0  0  0  0
 36 43  1  0  0  0  0
M  END
$$$$
