jmc_27
 OpenBabel02232411173D
Structure written by MMmdl.
 36 38  0  0  1  0  0  0  0  0999 V2000
   -1.5660   21.5400  -27.5940 C   0  0  0  0  0  0  0  0  0  0  0  0
   -2.8430   21.0330  -27.8490 C   0  0  0  0  0  0  0  0  0  0  0  0
   -3.6200   21.6030  -28.8590 C   0  0  0  0  0  0  0  0  0  0  0  0
   -3.1540   22.6830  -29.6260 C   0  0  0  0  0  0  0  0  0  0  0  0
   -1.8770   23.1800  -29.3340 C   0  0  0  0  0  0  0  0  0  0  0  0
   -1.0780   22.6190  -28.3350 C   0  0  0  0  0  0  0  0  0  0  0  0
   -1.2480   24.5170  -30.2010 Cl  0  0  0  0  0  0  0  0  0  0  0  0
   -4.0120   23.1960  -30.7460 C   0  0  0  0  0  0  0  0  0  0  0  0
   -4.4100   22.4770  -31.6370 O   0  0  0  0  0  0  0  0  0  0  0  0
   -4.3320   24.5660  -30.6420 N   0  0  0  0  0  0  0  0  0  0  0  0
   -5.1840   25.3040  -31.5120 C   0  0  0  0  0  0  0  0  0  0  0  0
   -5.8410   24.7370  -32.6170 C   0  0  0  0  0  0  0  0  0  0  0  0
   -6.7000   25.5470  -33.3720 C   0  0  0  0  0  0  0  0  0  0  0  0
   -6.9150   26.8610  -33.1080 N   0  0  0  0  0  0  0  0  0  0  0  0
   -6.2520   27.4060  -32.0290 C   0  0  0  0  0  0  0  0  0  0  0  0
   -5.3840   26.6690  -31.2110 C   0  0  0  0  0  0  0  0  0  0  0  0
   -6.5600   28.7750  -31.7720 N   0  0  0  0  0  0  0  0  0  0  0  0
   -5.6960   29.7110  -31.1530 C   0  0  0  0  0  0  0  0  0  0  0  0
   -4.5630   29.4180  -30.8310 O   0  0  0  0  0  0  0  0  0  0  0  0
   -6.3220   31.0530  -30.9220 C   0  0  1  0  0  0  0  0  0  0  0  0
   -5.7930   31.9220  -29.7800 C   0  0  0  0  0  0  0  0  0  0  0  0
   -5.5580   32.3430  -31.2060 C   0  0  1  0  0  0  0  0  0  0  0  0
   -3.9550   32.2390  -31.8660 Cl  0  0  0  0  0  0  0  0  0  0  0  0
   -5.1760   20.9590  -29.1770 Cl  0  0  0  0  0  0  0  0  0  0  0  0
   -7.4060   31.1040  -31.1280 H   0  0  0  0  0  0  0  0  0  0  0  0
   -6.1240   33.1950  -31.6220 H   0  0  0  0  0  0  0  0  0  0  0  0
   -0.9450   21.0930  -26.8090 H   0  0  0  0  0  0  0  0  0  0  0  0
   -3.2180   20.2040  -27.2470 H   0  0  0  0  0  0  0  0  0  0  0  0
   -0.0830   23.0180  -28.1170 H   0  0  0  0  0  0  0  0  0  0  0  0
   -3.9350   25.0930  -29.8430 H   0  0  0  0  0  0  0  0  0  0  0  0
   -5.7180   23.6840  -32.8850 H   0  0  0  0  0  0  0  0  0  0  0  0
   -7.2510   25.1290  -34.2310 H   0  0  0  0  0  0  0  0  0  0  0  0
   -4.8780   27.1390  -30.3650 H   0  0  0  0  0  0  0  0  0  0  0  0
   -7.5030   29.0950  -32.0900 H   0  0  0  0  0  0  0  0  0  0  0  0
   -6.5260   32.4930  -29.1860 H   0  0  0  0  0  0  0  0  0  0  0  0
   -4.9550   31.5610  -29.1660 H   0  0  0  0  0  0  0  0  0  0  0  0
  1  2  2  0  0  0  0
  1  6  1  0  0  0  0
  1 27  1  0  0  0  0
  2  3  1  0  0  0  0
  2 28  1  0  0  0  0
  3  4  2  0  0  0  0
  3 24  1  0  0  0  0
  4  5  1  0  0  0  0
  4  8  1  0  0  0  0
  5  6  2  0  0  0  0
  5  7  1  0  0  0  0
  6 29  1  0  0  0  0
  8  9  2  0  0  0  0
  8 10  1  0  0  0  0
 10 11  1  0  0  0  0
 10 30  1  0  0  0  0
 11 12  2  0  0  0  0
 11 16  1  0  0  0  0
 12 13  1  0  0  0  0
 12 31  1  0  0  0  0
 13 14  2  0  0  0  0
 13 32  1  0  0  0  0
 14 15  1  0  0  0  0
 15 16  2  0  0  0  0
 15 17  1  0  0  0  0
 16 33  1  0  0  0  0
 17 18  1  0  0  0  0
 17 34  1  0  0  0  0
 18 19  2  0  0  0  0
 18 20  1  0  0  0  0
 20 21  1  0  0  0  0
 20 22  1  0  0  0  0
 20 25  1  6  0  0  0
 21 22  1  0  0  0  0
 21 35  1  0  0  0  0
 21 36  1  0  0  0  0
 22 23  1  0  0  0  0
 22 26  1  6  0  0  0
M  END
$$$$
