18626-1
 OpenBabel02232411163D
Structure written by MMmdl.
 38 39  0  0  0  0  0  0  0  0999 V2000
   23.7950   12.7030   30.3570 C   0  0  0  0  0  0  0  0  0  0  0  0
   23.3770   11.2480   30.4490 C   0  0  0  0  0  0  0  0  0  0  0  0
   22.1440   11.3110   31.2770 O   0  0  0  0  0  0  0  0  0  0  0  0
   21.5230   10.1610   31.6050 C   0  0  0  0  0  0  0  0  0  0  0  0
   22.0110    8.9800   31.1530 N   0  0  0  0  0  0  0  0  0  0  0  0
   21.2970    7.8330   31.4670 C   0  0  0  0  0  0  0  0  0  0  0  0
   20.1460    7.8510   32.2470 C   0  0  0  0  0  0  0  0  0  0  0  0
   19.6440    9.0940   32.7220 C   0  0  0  0  0  0  0  0  0  0  0  0
   18.4950    9.1240   33.4690 N   0  0  0  0  0  0  0  0  0  0  0  0
   20.3400   10.3000   32.3920 C   0  0  0  0  0  0  0  0  0  0  0  0
   19.9070   11.5930   32.7540 C   0  0  0  0  0  0  0  0  0  0  0  0
   19.5960   12.6810   33.0060 N   0  0  0  0  0  0  0  0  0  0  0  0
   21.8750    6.6790   30.8840 N   0  0  0  0  0  0  0  0  0  0  0  0
   21.3570    5.3600   30.9000 C   0  0  0  0  0  0  0  0  0  0  0  0
   20.3280    5.0620   31.4670 O   0  0  0  0  0  0  0  0  0  0  0  0
   22.2050    4.3820   30.1010 C   0  0  0  0  0  0  0  0  0  0  0  0
   23.5540    4.1660   30.7310 C   0  0  0  0  0  0  0  0  0  0  0  0
   23.6850    3.2660   31.7990 C   0  0  0  0  0  0  0  0  0  0  0  0
   24.9390    3.1020   32.3900 C   0  0  0  0  0  0  0  0  0  0  0  0
   25.0900    2.0370   33.7380 Cl  0  0  0  0  0  0  0  0  0  0  0  0
   26.0730    3.7750   31.9300 C   0  0  0  0  0  0  0  0  0  0  0  0
   25.9310    4.6590   30.8570 C   0  0  0  0  0  0  0  0  0  0  0  0
   24.6810    4.8590   30.2630 C   0  0  0  0  0  0  0  0  0  0  0  0
   24.6950   12.7750   29.6940 H   0  0  0  0  0  0  0  0  0  0  0  0
   22.9840   13.3250   29.9090 H   0  0  0  0  0  0  0  0  0  0  0  0
   24.0550   13.1160   31.3570 H   0  0  0  0  0  0  0  0  0  0  0  0
   23.0950   10.8210   29.4600 H   0  0  0  0  0  0  0  0  0  0  0  0
   24.1230   10.6180   30.9820 H   0  0  0  0  0  0  0  0  0  0  0  0
   19.6090    6.9300   32.4850 H   0  0  0  0  0  0  0  0  0  0  0  0
   17.9980    8.2490   33.7260 H   0  0  0  0  0  0  0  0  0  0  0  0
   18.0850   10.0060   33.7770 H   0  0  0  0  0  0  0  0  0  0  0  0
   22.7640    6.8450   30.3690 H   0  0  0  0  0  0  0  0  0  0  0  0
   21.6640    3.4000   30.0360 H   0  0  0  0  0  0  0  0  0  0  0  0
   22.3230    4.7750   29.0560 H   0  0  0  0  0  0  0  0  0  0  0  0
   22.8250    2.6940   32.1540 H   0  0  0  0  0  0  0  0  0  0  0  0
   27.0530    3.6210   32.3910 H   0  0  0  0  0  0  0  0  0  0  0  0
   26.8040    5.1990   30.4760 H   0  0  0  0  0  0  0  0  0  0  0  0
   24.6030    5.5600   29.4270 H   0  0  0  0  0  0  0  0  0  0  0  0
  1  2  1  0  0  0  0
  1 24  1  0  0  0  0
  1 25  1  0  0  0  0
  1 26  1  0  0  0  0
  2  3  1  0  0  0  0
  2 27  1  0  0  0  0
  2 28  1  0  0  0  0
  3  4  1  0  0  0  0
  4 10  2  0  0  0  0
  4  5  1  0  0  0  0
  5  6  2  0  0  0  0
  6  7  1  0  0  0  0
  6 13  1  0  0  0  0
  7  8  2  0  0  0  0
  7 29  1  0  0  0  0
  8  9  1  0  0  0  0
  8 10  1  0  0  0  0
  9 30  1  0  0  0  0
  9 31  1  0  0  0  0
 10 11  1  0  0  0  0
 11 12  3  0  0  0  0
 13 14  1  0  0  0  0
 13 32  1  0  0  0  0
 14 15  2  0  0  0  0
 14 16  1  0  0  0  0
 16 17  1  0  0  0  0
 16 33  1  0  0  0  0
 16 34  1  0  0  0  0
 17 23  2  0  0  0  0
 17 18  1  0  0  0  0
 18 19  2  0  0  0  0
 18 35  1  0  0  0  0
 19 20  1  0  0  0  0
 19 21  1  0  0  0  0
 21 22  2  0  0  0  0
 21 36  1  0  0  0  0
 22 23  1  0  0  0  0
 22 37  1  0  0  0  0
 23 38  1  0  0  0  0
M  END
$$$$
