p38a_2u
 OpenBabel02232411163D
Structure written by MMmdl.
 64 68  0  0  0  0  0  0  0  0999 V2000
   38.2780   36.5340   17.1740 C   0  0  0  0  0  0  0  0  0  0  0  0
   34.5390   35.1230   21.2640 C   0  0  0  0  0  0  0  0  0  0  0  0
   37.4940   36.0870   18.2350 C   0  0  0  0  0  0  0  0  0  0  0  0
   34.0130   39.2310   23.7630 C   0  0  0  0  0  0  0  0  0  0  0  0
   34.6190   38.0000   21.3720 C   0  0  0  0  0  0  0  0  0  0  0  0
   35.0210   37.3330   20.1640 C   0  0  0  0  0  0  0  0  0  0  0  0
   37.6290   36.6850   15.9410 C   0  0  0  0  0  0  0  0  0  0  0  0
   36.2800   36.3860   15.7380 C   0  0  0  0  0  0  0  0  0  0  0  0
   35.5180   35.9250   16.8160 C   0  0  0  0  0  0  0  0  0  0  0  0
   34.2550   37.2390   22.5210 C   0  0  0  0  0  0  0  0  0  0  0  0
   34.5920   39.4160   21.4990 C   0  0  0  0  0  0  0  0  0  0  0  0
   35.0170   35.9820   20.1430 C   0  0  0  0  0  0  0  0  0  0  0  0
   36.1300   35.7690   18.0630 C   0  0  0  0  0  0  0  0  0  0  0  0
   38.0280   35.9600   19.4420 F   0  0  0  0  0  0  0  0  0  0  0  0
   35.4090   35.1520   19.0930 O   0  0  0  0  0  0  0  0  0  0  0  0
   34.3020   40.0440   22.6480 N   0  0  0  0  0  0  0  0  0  0  0  0
   34.4390   33.9160   21.1950 O   0  0  0  0  0  0  0  0  0  0  0  0
   34.1700   35.8300   22.4600 N   0  0  0  0  0  0  0  0  0  0  0  0
   33.9750   37.8510   23.7150 N   0  0  0  0  0  0  0  0  0  0  0  0
   33.6850   39.8550   24.9440 N   0  0  0  0  0  0  0  0  0  0  0  0
   39.3330   36.7900   17.3060 H   0  0  0  0  0  0  0  0  0  0  0  0
   35.3300   37.9430   19.3130 H   0  0  0  0  0  0  0  0  0  0  0  0
   35.8090   36.5210   14.7610 H   0  0  0  0  0  0  0  0  0  0  0  0
   34.4530   35.7070   16.6800 H   0  0  0  0  0  0  0  0  0  0  0  0
   34.8150   40.0470   20.6230 H   0  0  0  0  0  0  0  0  0  0  0  0
   33.8030   40.8830   25.0280 H   0  0  0  0  0  0  0  0  0  0  0  0
   38.3270   37.1780   14.9200 F   0  0  0  0  0  0  0  0  0  0  0  0
   32.4790   39.1250   28.4940 C   0  0  0  0  0  0  0  0  0  0  0  0
   32.5050   39.7770   27.1060 C   0  0  0  0  0  0  0  0  0  0  0  0
   33.6010   39.1170   26.2420 C   0  0  0  0  0  0  0  0  0  0  0  0
   34.9610   39.1630   26.9720 C   0  0  0  0  0  0  0  0  0  0  0  0
   34.8230   38.5480   28.3710 C   0  0  0  0  0  0  0  0  0  0  0  0
   33.7740   39.1830   29.1360 O   0  0  0  0  0  0  0  0  0  0  0  0
   32.1560   38.0600   28.4270 H   0  0  0  0  0  0  0  0  0  0  0  0
   31.8420   39.7060   29.2000 H   0  0  0  0  0  0  0  0  0  0  0  0
   32.7120   40.8680   27.2100 H   0  0  0  0  0  0  0  0  0  0  0  0
   31.5120   39.6530   26.6120 H   0  0  0  0  0  0  0  0  0  0  0  0
   33.3200   38.0450   26.0400 H   0  0  0  0  0  0  0  0  0  0  0  0
   35.7200   38.5840   26.3940 H   0  0  0  0  0  0  0  0  0  0  0  0
   35.3110   40.2190   27.0550 H   0  0  0  0  0  0  0  0  0  0  0  0
   34.6150   37.4540   28.3010 H   0  0  0  0  0  0  0  0  0  0  0  0
   35.7250   38.7530   28.9910 H   0  0  0  0  0  0  0  0  0  0  0  0
   34.4740   33.7120   25.6720 C   0  0  0  0  0  0  0  0  0  0  0  0
   34.9010   34.2800   24.2980 C   0  0  0  0  0  0  0  0  0  0  0  0
   33.7260   35.0730   23.6960 C   0  0  0  0  0  0  0  0  0  0  0  0
   32.5150   34.1630   23.4020 C   0  0  0  0  0  0  0  0  0  0  0  0
   32.4650   32.9700   24.3850 C   0  0  0  0  0  0  0  0  0  0  0  0
   34.6500   34.4930   26.4610 H   0  0  0  0  0  0  0  0  0  0  0  0
   35.1210   32.8180   25.8840 H   0  0  0  0  0  0  0  0  0  0  0  0
   35.1990   33.4410   23.6280 H   0  0  0  0  0  0  0  0  0  0  0  0
   35.7820   34.9440   24.4560 H   0  0  0  0  0  0  0  0  0  0  0  0
   33.4020   35.8330   24.4710 H   0  0  0  0  0  0  0  0  0  0  0  0
   31.5850   34.7730   23.5040 H   0  0  0  0  0  0  0  0  0  0  0  0
   32.5500   33.7450   22.3690 H   0  0  0  0  0  0  0  0  0  0  0  0
   31.3970   32.6500   24.5060 H   0  0  0  0  0  0  0  0  0  0  0  0
   33.0630   32.1150   23.9690 H   0  0  0  0  0  0  0  0  0  0  0  0
   33.0220   33.3600   25.7120 N   0  0  0  0  0  0  0  0  0  0  0  0
   32.3900   32.6680   27.1470 S   0  0  0  0  0  0  0  0  0  0  0  0
   31.1150   32.0050   26.7930 O   0  0  0  0  0  0  0  0  0  0  0  0
   32.2030   33.7230   28.1540 O   0  0  0  0  0  0  0  0  0  0  0  0
   33.5540   31.5140   27.7200 C   0  0  0  0  0  0  0  0  0  0  0  0
   33.8840   30.8010   26.9210 H   0  0  0  0  0  0  0  0  0  0  0  0
   34.4720   32.0030   28.1380 H   0  0  0  0  0  0  0  0  0  0  0  0
   33.1370   30.8820   28.5500 H   0  0  0  0  0  0  0  0  0  0  0  0
  1  3  2  0  0  0  0
  1  7  1  0  0  0  0
  1 21  1  0  0  0  0
  2 12  1  0  0  0  0
  2 17  2  0  0  0  0
  2 18  1  0  0  0  0
  3 13  1  0  0  0  0
  3 14  1  0  0  0  0
  4 16  2  0  0  0  0
  4 19  1  0  0  0  0
  4 20  1  0  0  0  0
  5  6  1  0  0  0  0
  5 10  1  0  0  0  0
  5 11  2  0  0  0  0
  6 12  2  0  0  0  0
  6 22  1  0  0  0  0
  7  8  2  0  0  0  0
  7 27  1  0  0  0  0
  8  9  1  0  0  0  0
  8 23  1  0  0  0  0
  9 13  2  0  0  0  0
  9 24  1  0  0  0  0
 10 18  1  0  0  0  0
 10 19  2  0  0  0  0
 11 16  1  0  0  0  0
 11 25  1  0  0  0  0
 12 15  1  0  0  0  0
 13 15  1  0  0  0  0
 18 45  1  0  0  0  0
 20 26  1  0  0  0  0
 20 30  1  0  0  0  0
 28 29  1  0  0  0  0
 28 33  1  0  0  0  0
 28 34  1  0  0  0  0
 28 35  1  0  0  0  0
 29 30  1  0  0  0  0
 29 36  1  0  0  0  0
 29 37  1  0  0  0  0
 30 31  1  0  0  0  0
 30 38  1  0  0  0  0
 31 32  1  0  0  0  0
 31 39  1  0  0  0  0
 31 40  1  0  0  0  0
 32 33  1  0  0  0  0
 32 41  1  0  0  0  0
 32 42  1  0  0  0  0
 43 44  1  0  0  0  0
 43 48  1  0  0  0  0
 43 49  1  0  0  0  0
 43 57  1  0  0  0  0
 44 45  1  0  0  0  0
 44 50  1  0  0  0  0
 44 51  1  0  0  0  0
 45 46  1  0  0  0  0
 45 52  1  0  0  0  0
 46 47  1  0  0  0  0
 46 53  1  0  0  0  0
 46 54  1  0  0  0  0
 47 55  1  0  0  0  0
 47 56  1  0  0  0  0
 47 57  1  0  0  0  0
 57 58  1  0  0  0  0
 58 59  2  0  0  0  0
 58 60  2  0  0  0  0
 58 61  1  0  0  0  0
 61 62  1  0  0  0  0
 61 63  1  0  0  0  0
 61 64  1  0  0  0  0
M  END
$$$$
