p38a_3flw
 OpenBabel02232411163D
Structure written by MMmdl.
 49 51  0  0  0  0  0  0  0  0999 V2000
   38.2950   36.5360   17.1260 C   0  0  0  0  0  0  0  0  0  0  0  0
   37.6750   36.7020   15.8800 C   0  0  0  0  0  0  0  0  0  0  0  0
   32.2060   38.6720   25.8350 C   0  0  0  0  0  0  0  0  0  0  0  0
   31.4790   39.6180   24.8710 C   0  0  0  0  0  0  0  0  0  0  0  0
   34.4950   38.0610   26.8270 C   0  0  0  0  0  0  0  0  0  0  0  0
   34.3250   34.9620   23.6870 C   0  0  0  0  0  0  0  0  0  0  0  0
   37.9980   35.9200   19.3770 F   0  0  0  0  0  0  0  0  0  0  0  0
   37.4920   36.0590   18.1570 C   0  0  0  0  0  0  0  0  0  0  0  0
   38.3870   37.2310   14.8880 F   0  0  0  0  0  0  0  0  0  0  0  0
   36.3370   36.3860   15.6370 C   0  0  0  0  0  0  0  0  0  0  0  0
   35.5540   35.8930   16.6870 C   0  0  0  0  0  0  0  0  0  0  0  0
   36.1370   35.7260   17.9450 C   0  0  0  0  0  0  0  0  0  0  0  0
   35.3800   35.1060   18.9500 O   0  0  0  0  0  0  0  0  0  0  0  0
   35.0810   35.9140   20.0460 C   0  0  0  0  0  0  0  0  0  0  0  0
   35.1110   37.2660   20.0910 C   0  0  0  0  0  0  0  0  0  0  0  0
   34.8400   37.9200   21.3410 C   0  0  0  0  0  0  0  0  0  0  0  0
   34.8070   39.3330   21.4840 C   0  0  0  0  0  0  0  0  0  0  0  0
   34.6120   39.9380   22.6650 N   0  0  0  0  0  0  0  0  0  0  0  0
   34.6810   35.0480   21.1870 C   0  0  0  0  0  0  0  0  0  0  0  0
   34.4730   33.8560   21.1290 O   0  0  0  0  0  0  0  0  0  0  0  0
   34.5440   35.7460   22.4390 N   0  0  0  0  0  0  0  0  0  0  0  0
   34.6120   37.1460   22.5180 C   0  0  0  0  0  0  0  0  0  0  0  0
   34.4300   37.7380   23.7440 N   0  0  0  0  0  0  0  0  0  0  0  0
   34.4500   39.1120   23.7940 C   0  0  0  0  0  0  0  0  0  0  0  0
   34.3500   39.7610   25.0190 N   0  0  0  0  0  0  0  0  0  0  0  0
   33.6270   39.1660   26.1940 C   0  0  0  0  0  0  0  0  0  0  0  0
   34.1580   37.8010   28.2990 C   0  0  0  0  0  0  0  0  0  0  0  0
   34.4290   38.9370   29.1430 O   0  0  0  0  0  0  0  0  0  0  0  0
   30.1440   39.1260   24.6460 O   0  0  0  0  0  0  0  0  0  0  0  0
   39.3430   36.8080   17.2880 H   0  0  0  0  0  0  0  0  0  0  0  0
   31.6190   38.5840   26.7810 H   0  0  0  0  0  0  0  0  0  0  0  0
   32.2610   37.6510   25.3820 H   0  0  0  0  0  0  0  0  0  0  0  0
   31.4440   40.6510   25.2800 H   0  0  0  0  0  0  0  0  0  0  0  0
   31.9280   39.5920   23.8540 H   0  0  0  0  0  0  0  0  0  0  0  0
   34.3620   37.1000   26.2650 H   0  0  0  0  0  0  0  0  0  0  0  0
   35.5700   38.3540   26.7340 H   0  0  0  0  0  0  0  0  0  0  0  0
   35.1350   35.1940   24.4310 H   0  0  0  0  0  0  0  0  0  0  0  0
   33.3380   35.2390   24.1470 H   0  0  0  0  0  0  0  0  0  0  0  0
   34.3330   33.8650   23.4630 H   0  0  0  0  0  0  0  0  0  0  0  0
   35.8880   36.5360   14.6540 H   0  0  0  0  0  0  0  0  0  0  0  0
   34.4970   35.6630   16.5170 H   0  0  0  0  0  0  0  0  0  0  0  0
   35.3520   37.8860   19.2250 H   0  0  0  0  0  0  0  0  0  0  0  0
   34.9250   39.9790   20.5990 H   0  0  0  0  0  0  0  0  0  0  0  0
   34.2250   40.7980   24.9840 H   0  0  0  0  0  0  0  0  0  0  0  0
   33.5390   40.0200   26.9290 H   0  0  0  0  0  0  0  0  0  0  0  0
   33.0680   37.6310   28.4550 H   0  0  0  0  0  0  0  0  0  0  0  0
   34.7570   36.9380   28.6770 H   0  0  0  0  0  0  0  0  0  0  0  0
   35.3400   39.2740   28.9620 H   0  0  0  0  0  0  0  0  0  0  0  0
   29.5020   39.7830   25.0310 H   0  0  0  0  0  0  0  0  0  0  0  0
  1  2  2  0  0  0  0
  1  8  1  0  0  0  0
  1 30  1  0  0  0  0
  2  9  1  0  0  0  0
  2 10  1  0  0  0  0
  3  4  1  0  0  0  0
  3 26  1  0  0  0  0
  3 31  1  0  0  0  0
  3 32  1  0  0  0  0
  4 29  1  0  0  0  0
  4 33  1  0  0  0  0
  4 34  1  0  0  0  0
  5 26  1  0  0  0  0
  5 27  1  0  0  0  0
  5 35  1  0  0  0  0
  5 36  1  0  0  0  0
  6 21  1  0  0  0  0
  6 37  1  0  0  0  0
  6 38  1  0  0  0  0
  6 39  1  0  0  0  0
  7  8  1  0  0  0  0
  8 12  2  0  0  0  0
 10 11  2  0  0  0  0
 10 40  1  0  0  0  0
 11 12  1  0  0  0  0
 11 41  1  0  0  0  0
 12 13  1  0  0  0  0
 13 14  1  0  0  0  0
 14 15  2  0  0  0  0
 14 19  1  0  0  0  0
 15 16  1  0  0  0  0
 15 42  1  0  0  0  0
 16 17  2  0  0  0  0
 16 22  1  0  0  0  0
 17 18  1  0  0  0  0
 17 43  1  0  0  0  0
 18 24  2  0  0  0  0
 19 20  2  0  0  0  0
 19 21  1  0  0  0  0
 21 22  1  0  0  0  0
 22 23  2  0  0  0  0
 23 24  1  0  0  0  0
 24 25  1  0  0  0  0
 25 26  1  0  0  0  0
 25 44  1  0  0  0  0
 26 45  1  0  0  0  0
 27 28  1  0  0  0  0
 27 46  1  0  0  0  0
 27 47  1  0  0  0  0
 28 48  1  0  0  0  0
 29 49  1  0  0  0  0
M  END
$$$$
