18630-1
 OpenBabel02232411163D
Structure written by MMmdl.
 41 42  0  0  0  0  0  0  0  0999 V2000
   23.2440   10.8580   29.0580 C   0  0  0  0  0  0  0  0  0  0  0  0
   23.5090   11.0680   30.5330 C   0  0  0  0  0  0  0  0  0  0  0  0
   22.2380   11.1430   31.2830 O   0  0  0  0  0  0  0  0  0  0  0  0
   21.5860   10.0060   31.6100 C   0  0  0  0  0  0  0  0  0  0  0  0
   22.0530    8.8150   31.1730 N   0  0  0  0  0  0  0  0  0  0  0  0
   21.3140    7.6820   31.4810 C   0  0  0  0  0  0  0  0  0  0  0  0
   20.1530    7.7270   32.2460 C   0  0  0  0  0  0  0  0  0  0  0  0
   19.6780    8.9810   32.7160 C   0  0  0  0  0  0  0  0  0  0  0  0
   18.5230    9.0370   33.4540 N   0  0  0  0  0  0  0  0  0  0  0  0
   20.4030   10.1730   32.3920 C   0  0  0  0  0  0  0  0  0  0  0  0
   20.0070   11.4740   32.7660 C   0  0  0  0  0  0  0  0  0  0  0  0
   19.7320   12.5690   33.0330 N   0  0  0  0  0  0  0  0  0  0  0  0
   21.8830    6.5230   30.9040 N   0  0  0  0  0  0  0  0  0  0  0  0
   21.3160    5.2240   30.8550 C   0  0  0  0  0  0  0  0  0  0  0  0
   20.2630    4.9580   31.3940 O   0  0  0  0  0  0  0  0  0  0  0  0
   22.1240    4.2450   30.0170 C   0  0  0  0  0  0  0  0  0  0  0  0
   23.4130    3.8510   30.6850 C   0  0  0  0  0  0  0  0  0  0  0  0
   23.4620    2.7330   31.5310 C   0  0  0  0  0  0  0  0  0  0  0  0
   24.6500    2.3890   32.1780 C   0  0  0  0  0  0  0  0  0  0  0  0
   25.8180    3.1460   31.9800 C   0  0  0  0  0  0  0  0  0  0  0  0
   27.0840    2.7680   32.6750 C   0  0  0  0  0  0  0  0  0  0  0  0
   25.7730    4.2450   31.1090 C   0  0  0  0  0  0  0  0  0  0  0  0
   24.5840    4.5920   30.4640 C   0  0  0  0  0  0  0  0  0  0  0  0
   22.8840    9.8220   28.8520 H   0  0  0  0  0  0  0  0  0  0  0  0
   22.4900   11.5800   28.6730 H   0  0  0  0  0  0  0  0  0  0  0  0
   24.1940   11.0110   28.4870 H   0  0  0  0  0  0  0  0  0  0  0  0
   23.9030   12.0910   30.7500 H   0  0  0  0  0  0  0  0  0  0  0  0
   24.1520   10.2690   30.9670 H   0  0  0  0  0  0  0  0  0  0  0  0
   19.5920    6.8190   32.4760 H   0  0  0  0  0  0  0  0  0  0  0  0
   18.0190    8.1720   33.7300 H   0  0  0  0  0  0  0  0  0  0  0  0
   18.1370    9.9260   33.7700 H   0  0  0  0  0  0  0  0  0  0  0  0
   22.7900    6.6800   30.4200 H   0  0  0  0  0  0  0  0  0  0  0  0
   21.4990    3.3320   29.8370 H   0  0  0  0  0  0  0  0  0  0  0  0
   22.3410    4.7150   29.0210 H   0  0  0  0  0  0  0  0  0  0  0  0
   22.5750    2.1150   31.6880 H   0  0  0  0  0  0  0  0  0  0  0  0
   24.6730    1.5180   32.8400 H   0  0  0  0  0  0  0  0  0  0  0  0
   27.4610    1.7890   32.2840 H   0  0  0  0  0  0  0  0  0  0  0  0
   26.9160    2.6590   33.7750 H   0  0  0  0  0  0  0  0  0  0  0  0
   27.8870    3.5290   32.5230 H   0  0  0  0  0  0  0  0  0  0  0  0
   26.6730    4.8390   30.9250 H   0  0  0  0  0  0  0  0  0  0  0  0
   24.5900    5.4430   29.7770 H   0  0  0  0  0  0  0  0  0  0  0  0
  1  2  1  0  0  0  0
  1 24  1  0  0  0  0
  1 25  1  0  0  0  0
  1 26  1  0  0  0  0
  2  3  1  0  0  0  0
  2 27  1  0  0  0  0
  2 28  1  0  0  0  0
  3  4  1  0  0  0  0
  4 10  2  0  0  0  0
  4  5  1  0  0  0  0
  5  6  2  0  0  0  0
  6  7  1  0  0  0  0
  6 13  1  0  0  0  0
  7  8  2  0  0  0  0
  7 29  1  0  0  0  0
  8  9  1  0  0  0  0
  8 10  1  0  0  0  0
  9 30  1  0  0  0  0
  9 31  1  0  0  0  0
 10 11  1  0  0  0  0
 11 12  3  0  0  0  0
 13 14  1  0  0  0  0
 13 32  1  0  0  0  0
 14 15  2  0  0  0  0
 14 16  1  0  0  0  0
 16 17  1  0  0  0  0
 16 33  1  0  0  0  0
 16 34  1  0  0  0  0
 17 23  2  0  0  0  0
 17 18  1  0  0  0  0
 18 19  2  0  0  0  0
 18 35  1  0  0  0  0
 19 20  1  0  0  0  0
 19 36  1  0  0  0  0
 20 21  1  0  0  0  0
 20 22  2  0  0  0  0
 21 37  1  0  0  0  0
 21 38  1  0  0  0  0
 21 39  1  0  0  0  0
 22 23  1  0  0  0  0
 22 40  1  0  0  0  0
 23 41  1  0  0  0  0
M  END
$$$$
