1h1q
 OpenBabel02232411153D
Structure written by MMmdl.
 45 48  0  0  0  0  0  0  0  0999 V2000
    1.8390   28.8560    6.8410 C   0  0  0  0  0  0  0  0  0  0  0  0
   -1.6210   31.4900    7.9850 C   0  0  0  0  0  0  0  0  0  0  0  0
   -0.2180   25.9850    8.8890 C   0  0  0  0  0  0  0  0  0  0  0  0
   -0.9680   25.2980   10.0380 C   0  0  0  0  0  0  0  0  0  0  0  0
   -0.7870   23.7740    9.8500 C   0  0  0  0  0  0  0  0  0  0  0  0
   -1.3790   22.9860   11.0260 C   0  0  0  0  0  0  0  0  0  0  0  0
   -0.8100   23.4640   12.3710 C   0  0  0  0  0  0  0  0  0  0  0  0
   -1.0380   24.9710   12.5630 C   0  0  0  0  0  0  0  0  0  0  0  0
   -0.4330   25.7750   11.4030 C   0  0  0  0  0  0  0  0  0  0  0  0
    5.4510   25.6840    5.7990 C   0  0  0  0  0  0  0  0  0  0  0  0
    5.3000   24.9220    6.9630 C   0  0  0  0  0  0  0  0  0  0  0  0
    4.4030   25.3400    7.9500 C   0  0  0  0  0  0  0  0  0  0  0  0
    3.6480   26.5050    7.7870 C   0  0  0  0  0  0  0  0  0  0  0  0
    1.1070   27.9080    7.5540 N   0  0  0  0  0  0  0  0  0  0  0  0
   -0.0890   28.2500    8.0950 C   0  0  0  0  0  0  0  0  0  0  0  0
   -0.7900   27.3530    8.8070 O   0  0  0  0  0  0  0  0  0  0  0  0
   -0.5970   29.5650    7.9250 C   0  0  0  0  0  0  0  0  0  0  0  0
   -1.7360   30.2260    8.3990 N   0  0  0  0  0  0  0  0  0  0  0  0
   -0.4090   31.7110    7.2390 N   0  0  0  0  0  0  0  0  0  0  0  0
    0.2440   30.4830    7.1740 C   0  0  0  0  0  0  0  0  0  0  0  0
    1.4390   30.1590    6.5840 N   0  0  0  0  0  0  0  0  0  0  0  0
    3.0760   28.4710    6.3430 N   0  0  0  0  0  0  0  0  0  0  0  0
    3.7800   27.2490    6.6030 C   0  0  0  0  0  0  0  0  0  0  0  0
    4.6990   26.8410    5.6110 C   0  0  0  0  0  0  0  0  0  0  0  0
   -2.3140   32.3020    8.1810 H   0  0  0  0  0  0  0  0  0  0  0  0
    0.8730   26.0510    9.1010 H   0  0  0  0  0  0  0  0  0  0  0  0
   -0.4260   25.5190    7.9040 H   0  0  0  0  0  0  0  0  0  0  0  0
   -2.0560   25.5420    9.9860 H   0  0  0  0  0  0  0  0  0  0  0  0
   -1.2900   23.4570    8.9100 H   0  0  0  0  0  0  0  0  0  0  0  0
    0.3020   23.5360    9.7720 H   0  0  0  0  0  0  0  0  0  0  0  0
   -2.4820   23.1200   11.0370 H   0  0  0  0  0  0  0  0  0  0  0  0
   -1.1510   21.9010   10.8980 H   0  0  0  0  0  0  0  0  0  0  0  0
   -1.3010   22.9060   13.2020 H   0  0  0  0  0  0  0  0  0  0  0  0
    0.2840   23.2530   12.3960 H   0  0  0  0  0  0  0  0  0  0  0  0
   -2.1300   25.1740   12.6420 H   0  0  0  0  0  0  0  0  0  0  0  0
   -0.5540   25.2960   13.5140 H   0  0  0  0  0  0  0  0  0  0  0  0
    0.6770   25.6550   11.4350 H   0  0  0  0  0  0  0  0  0  0  0  0
   -0.6750   26.8530   11.5390 H   0  0  0  0  0  0  0  0  0  0  0  0
    6.1640   25.3730    5.0300 H   0  0  0  0  0  0  0  0  0  0  0  0
    5.8820   24.0110    7.0920 H   0  0  0  0  0  0  0  0  0  0  0  0
    4.2820   24.7510    8.8630 H   0  0  0  0  0  0  0  0  0  0  0  0
    2.9670   26.8110    8.5830 H   0  0  0  0  0  0  0  0  0  0  0  0
   -0.1370   32.5900    6.7730 H   0  0  0  0  0  0  0  0  0  0  0  0
    3.5830   29.1310    5.7070 H   0  0  0  0  0  0  0  0  0  0  0  0
    4.8310   27.4280    4.7000 H   0  0  0  0  0  0  0  0  0  0  0  0
  1 14  2  0  0  0  0
  1 21  1  0  0  0  0
  1 22  1  0  0  0  0
  2 18  2  0  0  0  0
  2 19  1  0  0  0  0
  2 25  1  0  0  0  0
  3  4  1  0  0  0  0
  3 16  1  0  0  0  0
  3 26  1  0  0  0  0
  3 27  1  0  0  0  0
  4  5  1  0  0  0  0
  4  9  1  0  0  0  0
  4 28  1  0  0  0  0
  5  6  1  0  0  0  0
  5 29  1  0  0  0  0
  5 30  1  0  0  0  0
  6  7  1  0  0  0  0
  6 31  1  0  0  0  0
  6 32  1  0  0  0  0
  7  8  1  0  0  0  0
  7 33  1  0  0  0  0
  7 34  1  0  0  0  0
  8  9  1  0  0  0  0
  8 35  1  0  0  0  0
  8 36  1  0  0  0  0
  9 37  1  0  0  0  0
  9 38  1  0  0  0  0
 10 11  2  0  0  0  0
 10 24  1  0  0  0  0
 10 39  1  0  0  0  0
 11 12  1  0  0  0  0
 11 40  1  0  0  0  0
 12 13  2  0  0  0  0
 12 41  1  0  0  0  0
 13 23  1  0  0  0  0
 13 42  1  0  0  0  0
 14 15  1  0  0  0  0
 15 16  1  0  0  0  0
 15 17  2  0  0  0  0
 17 18  1  0  0  0  0
 17 20  1  0  0  0  0
 19 20  1  0  0  0  0
 19 43  1  0  0  0  0
 20 21  2  0  0  0  0
 22 23  1  0  0  0  0
 22 44  1  0  0  0  0
 23 24  2  0  0  0  0
 24 45  1  0  0  0  0
M  END
$$$$
