CAT-17d
                    3D
 Schrodinger Suite 2022-3.
 42 45  0  0  1  0  0  0  0  0999 V2000
   11.7130   -2.5550    1.3110 C   0  0  0  0  0  0  0  0  0  0  0  0
   13.0320   -2.6920    0.6590 N   0  0  0  0  0  0  0  0  0  0  0  0
   14.2370   -2.6450    1.3620 C   0  0  0  0  0  0  0  0  0  0  0  0
   14.3790   -2.6130    2.7180 N   0  0  0  0  0  0  0  0  0  0  0  0
   15.3070   -2.6890    0.4750 N   0  3  0  0  0  0  0  0  0  0  0  0
   14.8380   -2.9520   -0.9350 C   0  0  1  0  0  0  0  0  0  0  0  0
   15.3650   -1.8390   -1.8210 C   0  0  0  0  0  0  0  0  0  0  0  0
   16.3800   -2.0860   -2.7520 C   0  0  0  0  0  0  0  0  0  0  0  0
   16.7980   -1.0610   -3.6080 C   0  0  0  0  0  0  0  0  0  0  0  0
   16.2250    0.2090   -3.5280 C   0  0  0  0  0  0  0  0  0  0  0  0
   15.2450    0.4760   -2.5560 C   0  0  0  0  0  0  0  0  0  0  0  0
   14.6560    1.8230   -2.4170 C   0  0  0  0  0  0  0  0  0  0  0  0
   14.9380    2.6120   -1.2910 C   0  0  0  0  0  0  0  0  0  0  0  0
   14.3490    3.8720   -1.1770 C   0  0  0  0  0  0  0  0  0  0  0  0
   13.4760    4.3100   -2.1880 C   0  0  0  0  0  0  0  0  0  0  0  0
   13.1930    3.5550   -3.2830 N   0  0  0  0  0  0  0  0  0  0  0  0
   13.7800    2.3360   -3.3980 C   0  0  0  0  0  0  0  0  0  0  0  0
   14.8220   -0.5500   -1.7000 C   0  0  0  0  0  0  0  0  0  0  0  0
   15.1090   -4.3620   -1.4360 C   0  0  0  0  0  0  0  0  0  0  0  0
   16.3180   -5.1690   -0.9860 C   0  0  0  0  0  0  0  0  0  0  0  0
   14.9340   -5.5730   -0.5270 C   0  0  0  0  0  0  0  0  0  0  0  0
   13.2800   -2.8390   -0.7880 C   0  0  0  0  0  0  0  0  0  0  0  0
   12.3970   -2.8600   -1.5830 O   0  0  0  0  0  0  0  0  0  0  0  0
   11.4460   -1.4680    1.3890 H   0  0  0  0  0  0  0  0  0  0  0  0
   10.9400   -3.0940    0.6990 H   0  0  0  0  0  0  0  0  0  0  0  0
   11.7340   -3.0110    2.3380 H   0  0  0  0  0  0  0  0  0  0  0  0
   13.6480   -2.1850    3.3380 H   0  0  0  0  0  0  0  0  0  0  0  0
   16.2620   -2.9690    0.8210 H   0  0  0  0  0  0  0  0  0  0  0  0
   16.8500   -3.0700   -2.8090 H   0  0  0  0  0  0  0  0  0  0  0  0
   17.5850   -1.2680   -4.3410 H   0  0  0  0  0  0  0  0  0  0  0  0
   16.5500    0.9950   -4.2170 H   0  0  0  0  0  0  0  0  0  0  0  0
   15.6060    2.2360   -0.5110 H   0  0  0  0  0  0  0  0  0  0  0  0
   14.5570    4.5010   -0.3070 H   0  0  0  0  0  0  0  0  0  0  0  0
   12.9830    5.2950   -2.1170 H   0  0  0  0  0  0  0  0  0  0  0  0
   13.5430    1.7470   -4.2990 H   0  0  0  0  0  0  0  0  0  0  0  0
   14.0800   -0.3380   -0.9290 H   0  0  0  0  0  0  0  0  0  0  0  0
   14.7950   -4.4670   -2.4930 H   0  0  0  0  0  0  0  0  0  0  0  0
   17.0140   -4.7280   -0.2620 H   0  0  0  0  0  0  0  0  0  0  0  0
   16.8340   -5.7850   -1.7380 H   0  0  0  0  0  0  0  0  0  0  0  0
   14.6550   -5.4190    0.5230 H   0  0  0  0  0  0  0  0  0  0  0  0
   14.4740   -6.4790   -0.9520 H   0  0  0  0  0  0  0  0  0  0  0  0
   15.3530   -2.5230    3.1200 H   0  0  0  0  0  0  0  0  0  0  0  0
  1  2  1  0  0  0  0
  1 24  1  0  0  0  0
  1 25  1  0  0  0  0
  1 26  1  0  0  0  0
  2  3  1  0  0  0  0
  2 22  1  0  0  0  0
  3  4  1  0  0  0  0
  3  5  2  0  0  0  0
  4 27  1  0  0  0  0
  4 42  1  0  0  0  0
  5  6  1  0  0  0  0
  5 28  1  0  0  0  0
  6  7  1  0  0  0  0
  6 19  1  0  0  0  0
  6 22  1  0  0  0  0
  7  8  2  0  0  0  0
  7 18  1  0  0  0  0
  8  9  1  0  0  0  0
  8 29  1  0  0  0  0
  9 10  2  0  0  0  0
  9 30  1  0  0  0  0
 10 11  1  0  0  0  0
 10 31  1  0  0  0  0
 11 12  1  0  0  0  0
 11 18  2  0  0  0  0
 12 13  2  0  0  0  0
 12 17  1  0  0  0  0
 13 14  1  0  0  0  0
 13 32  1  0  0  0  0
 14 15  2  0  0  0  0
 14 33  1  0  0  0  0
 15 16  1  0  0  0  0
 15 34  1  0  0  0  0
 16 17  2  0  0  0  0
 17 35  1  0  0  0  0
 18 36  1  0  0  0  0
 19 20  1  0  0  0  0
 19 21  1  0  0  0  0
 19 37  1  0  0  0  0
 20 21  1  0  0  0  0
 20 38  1  0  0  0  0
 20 39  1  0  0  0  0
 21 40  1  0  0  0  0
 21 41  1  0  0  0  0
 22 23  2  0  0  0  0
M  CHG  1   5   1
M  END
$$$$
