p38a_2i
 OpenBabel02232411163D
Structure written by MMmdl.
 48 51  0  0  0  0  0  0  0  0999 V2000
   32.2680   39.8930   27.4280 C   0  0  0  0  0  0  0  0  0  0  0  0
   32.2810   39.2290   28.8100 C   0  0  0  0  0  0  0  0  0  0  0  0
   34.6030   38.6050   28.5920 C   0  0  0  0  0  0  0  0  0  0  0  0
   34.7080   39.2380   27.1990 C   0  0  0  0  0  0  0  0  0  0  0  0
   34.2440   34.2480   16.7820 C   0  0  0  0  0  0  0  0  0  0  0  0
   33.6000   39.2590   29.4020 O   0  0  0  0  0  0  0  0  0  0  0  0
   34.8260   35.5150   21.4170 C   0  0  0  0  0  0  0  0  0  0  0  0
   34.7020   34.7060   18.0200 C   0  0  0  0  0  0  0  0  0  0  0  0
   33.7330   39.4180   24.0400 C   0  0  0  0  0  0  0  0  0  0  0  0
   33.3220   39.2320   26.5150 C   0  0  0  0  0  0  0  0  0  0  0  0
   34.5730   38.3380   21.6580 C   0  0  0  0  0  0  0  0  0  0  0  0
   35.2530   37.7690   20.5300 C   0  0  0  0  0  0  0  0  0  0  0  0
   35.0450   34.4580   15.6570 C   0  0  0  0  0  0  0  0  0  0  0  0
   36.2600   35.1370   15.7780 C   0  0  0  0  0  0  0  0  0  0  0  0
   36.6850   35.6100   17.0220 C   0  0  0  0  0  0  0  0  0  0  0  0
   34.2280   37.5050   22.7670 C   0  0  0  0  0  0  0  0  0  0  0  0
   34.3320   39.7290   21.7930 C   0  0  0  0  0  0  0  0  0  0  0  0
   35.4840   36.4330   20.4710 C   0  0  0  0  0  0  0  0  0  0  0  0
   35.9190   35.3920   18.1790 C   0  0  0  0  0  0  0  0  0  0  0  0
   33.9030   35.2540   23.7750 C   0  0  0  0  0  0  0  0  0  0  0  0
   33.9500   34.4350   19.0840 F   0  0  0  0  0  0  0  0  0  0  0  0
   36.4680   35.8450   19.5010 C   0  0  0  0  0  0  0  0  0  0  0  0
   33.9350   40.2850   22.9440 N   0  0  0  0  0  0  0  0  0  0  0  0
   34.6350   34.3260   21.2630 O   0  0  0  0  0  0  0  0  0  0  0  0
   34.3130   36.1210   22.6370 N   0  0  0  0  0  0  0  0  0  0  0  0
   33.8150   38.0430   23.9630 N   0  0  0  0  0  0  0  0  0  0  0  0
   33.3630   39.9990   25.2330 N   0  0  0  0  0  0  0  0  0  0  0  0
   31.2570   39.7780   26.9700 H   0  0  0  0  0  0  0  0  0  0  0  0
   32.4880   40.9820   27.5330 H   0  0  0  0  0  0  0  0  0  0  0  0
   31.6770   39.8120   29.5430 H   0  0  0  0  0  0  0  0  0  0  0  0
   31.9350   38.1710   28.7480 H   0  0  0  0  0  0  0  0  0  0  0  0
   34.3570   37.5200   28.5190 H   0  0  0  0  0  0  0  0  0  0  0  0
   35.5330   38.7730   29.1840 H   0  0  0  0  0  0  0  0  0  0  0  0
   35.0840   40.2860   27.2860 H   0  0  0  0  0  0  0  0  0  0  0  0
   35.4370   38.6540   26.5890 H   0  0  0  0  0  0  0  0  0  0  0  0
   33.2740   33.7600   16.6700 H   0  0  0  0  0  0  0  0  0  0  0  0
   33.0140   38.1700   26.2990 H   0  0  0  0  0  0  0  0  0  0  0  0
   35.6260   38.4550   19.7630 H   0  0  0  0  0  0  0  0  0  0  0  0
   36.8770   35.3180   14.8970 H   0  0  0  0  0  0  0  0  0  0  0  0
   37.6290   36.1600   17.0830 H   0  0  0  0  0  0  0  0  0  0  0  0
   34.4730   40.3940   20.9250 H   0  0  0  0  0  0  0  0  0  0  0  0
   34.5370   35.4770   24.6750 H   0  0  0  0  0  0  0  0  0  0  0  0
   32.8290   35.4440   24.0430 H   0  0  0  0  0  0  0  0  0  0  0  0
   34.0240   34.1730   23.5000 H   0  0  0  0  0  0  0  0  0  0  0  0
   33.4510   41.0300   25.3360 H   0  0  0  0  0  0  0  0  0  0  0  0
   34.7150   34.0820   14.6890 H   0  0  0  0  0  0  0  0  0  0  0  0
   37.2630   36.6250   19.3150 H   0  0  0  0  0  0  0  0  0  0  0  0
   36.9790   34.9700   19.9830 H   0  0  0  0  0  0  0  0  0  0  0  0
  1  2  1  0  0  0  0
  1 10  1  0  0  0  0
  1 28  1  0  0  0  0
  1 29  1  0  0  0  0
  2  6  1  0  0  0  0
  2 30  1  0  0  0  0
  2 31  1  0  0  0  0
  3  4  1  0  0  0  0
  3  6  1  0  0  0  0
  3 32  1  0  0  0  0
  3 33  1  0  0  0  0
  4 10  1  0  0  0  0
  4 34  1  0  0  0  0
  4 35  1  0  0  0  0
  5  8  2  0  0  0  0
  5 13  1  0  0  0  0
  5 36  1  0  0  0  0
  7 18  1  0  0  0  0
  7 24  2  0  0  0  0
  7 25  1  0  0  0  0
  8 19  1  0  0  0  0
  8 21  1  0  0  0  0
  9 23  2  0  0  0  0
  9 26  1  0  0  0  0
  9 27  1  0  0  0  0
 10 27  1  0  0  0  0
 10 37  1  0  0  0  0
 11 12  1  0  0  0  0
 11 16  1  0  0  0  0
 11 17  2  0  0  0  0
 12 18  2  0  0  0  0
 12 38  1  0  0  0  0
 13 14  2  0  0  0  0
 13 46  1  0  0  0  0
 14 15  1  0  0  0  0
 14 39  1  0  0  0  0
 15 19  2  0  0  0  0
 15 40  1  0  0  0  0
 16 25  1  0  0  0  0
 16 26  2  0  0  0  0
 17 23  1  0  0  0  0
 17 41  1  0  0  0  0
 18 22  1  0  0  0  0
 19 22  1  0  0  0  0
 20 25  1  0  0  0  0
 20 42  1  0  0  0  0
 20 43  1  0  0  0  0
 20 44  1  0  0  0  0
 22 47  1  0  0  0  0
 22 48  1  0  0  0  0
 27 45  1  0  0  0  0
M  END
$$$$
