17124-1
 OpenBabel02232411163D
Structure written by MMmdl.
 46 47  0  0  0  0  0  0  0  0999 V2000
   23.2270   10.8140   29.0740 C   0  0  0  0  0  0  0  0  0  0  0  0
   23.4950   11.0410   30.5470 C   0  0  0  0  0  0  0  0  0  0  0  0
   22.2260   11.1520   31.2970 O   0  0  0  0  0  0  0  0  0  0  0  0
   21.5580   10.0250   31.6330 C   0  0  0  0  0  0  0  0  0  0  0  0
   22.0130    8.8280   31.2000 N   0  0  0  0  0  0  0  0  0  0  0  0
   21.2580    7.7060   31.5040 C   0  0  0  0  0  0  0  0  0  0  0  0
   20.0990    7.7630   32.2700 C   0  0  0  0  0  0  0  0  0  0  0  0
   19.6420    9.0220   32.7440 C   0  0  0  0  0  0  0  0  0  0  0  0
   18.4940    9.0840   33.4910 N   0  0  0  0  0  0  0  0  0  0  0  0
   20.3770   10.2070   32.4140 C   0  0  0  0  0  0  0  0  0  0  0  0
   19.9880   11.5130   32.7790 C   0  0  0  0  0  0  0  0  0  0  0  0
   19.7170   12.6100   33.0370 N   0  0  0  0  0  0  0  0  0  0  0  0
   21.8130    6.5440   30.9240 N   0  0  0  0  0  0  0  0  0  0  0  0
   21.2020    5.2750   30.8200 C   0  0  0  0  0  0  0  0  0  0  0  0
   20.1210    5.0250   31.3090 O   0  0  0  0  0  0  0  0  0  0  0  0
   22.0000    4.2920   29.9730 C   0  0  0  0  0  0  0  0  0  0  0  0
   23.3520    3.9760   30.5410 C   0  0  0  0  0  0  0  0  0  0  0  0
   24.4630    4.8170   30.2770 C   0  0  0  0  0  0  0  0  0  0  0  0
   24.1590    5.8930   29.4530 O   0  0  0  0  0  0  0  0  0  0  0  0
   25.1420    6.9580   29.3400 C   0  0  0  0  0  0  0  0  0  0  0  0
   25.7340    4.5430   30.7920 C   0  0  0  0  0  0  0  0  0  0  0  0
   25.9110    3.4110   31.5850 C   0  0  0  0  0  0  0  0  0  0  0  0
   27.6390    3.0380   32.2820 Br  0  0  0  0  0  0  0  0  0  0  0  0
   24.8220    2.5550   31.8510 C   0  0  0  0  0  0  0  0  0  0  0  0
   23.5510    2.8370   31.3240 C   0  0  0  0  0  0  0  0  0  0  0  0
   25.1420    1.4900   32.6580 O   0  0  0  0  0  0  0  0  0  0  0  0
   24.1420    0.4510   32.8350 C   0  0  0  0  0  0  0  0  0  0  0  0
   22.7920    9.8030   28.8930 H   0  0  0  0  0  0  0  0  0  0  0  0
   22.5300   11.5810   28.6660 H   0  0  0  0  0  0  0  0  0  0  0  0
   24.1900   10.8850   28.5110 H   0  0  0  0  0  0  0  0  0  0  0  0
   23.9120   12.0570   30.7480 H   0  0  0  0  0  0  0  0  0  0  0  0
   24.1210   10.2340   30.9910 H   0  0  0  0  0  0  0  0  0  0  0  0
   19.5240    6.8630   32.4960 H   0  0  0  0  0  0  0  0  0  0  0  0
   17.9870    8.2200   33.7630 H   0  0  0  0  0  0  0  0  0  0  0  0
   18.1120    9.9750   33.8070 H   0  0  0  0  0  0  0  0  0  0  0  0
   22.7300    6.6930   30.4320 H   0  0  0  0  0  0  0  0  0  0  0  0
   21.4040    3.3490   29.8660 H   0  0  0  0  0  0  0  0  0  0  0  0
   22.1290    4.7480   28.9530 H   0  0  0  0  0  0  0  0  0  0  0  0
   24.5680    7.7280   28.7750 H   0  0  0  0  0  0  0  0  0  0  0  0
   25.4320    7.3340   30.3450 H   0  0  0  0  0  0  0  0  0  0  0  0
   26.0150    6.5940   28.7570 H   0  0  0  0  0  0  0  0  0  0  0  0
   26.5860    5.1980   30.5720 H   0  0  0  0  0  0  0  0  0  0  0  0
   22.7140    2.1640   31.5230 H   0  0  0  0  0  0  0  0  0  0  0  0
   24.7060   -0.2930   33.4490 H   0  0  0  0  0  0  0  0  0  0  0  0
   23.2680    0.8470   33.3950 H   0  0  0  0  0  0  0  0  0  0  0  0
   23.8580    0.0190   31.8510 H   0  0  0  0  0  0  0  0  0  0  0  0
  1  2  1  0  0  0  0
  1 28  1  0  0  0  0
  1 29  1  0  0  0  0
  1 30  1  0  0  0  0
  2  3  1  0  0  0  0
  2 31  1  0  0  0  0
  2 32  1  0  0  0  0
  3  4  1  0  0  0  0
  4 10  2  0  0  0  0
  4  5  1  0  0  0  0
  5  6  2  0  0  0  0
  6  7  1  0  0  0  0
  6 13  1  0  0  0  0
  7  8  2  0  0  0  0
  7 33  1  0  0  0  0
  8  9  1  0  0  0  0
  8 10  1  0  0  0  0
  9 34  1  0  0  0  0
  9 35  1  0  0  0  0
 10 11  1  0  0  0  0
 11 12  3  0  0  0  0
 13 14  1  0  0  0  0
 13 36  1  0  0  0  0
 14 15  2  0  0  0  0
 14 16  1  0  0  0  0
 16 17  1  0  0  0  0
 16 37  1  0  0  0  0
 16 38  1  0  0  0  0
 17 25  2  0  0  0  0
 17 18  1  0  0  0  0
 18 19  1  0  0  0  0
 18 21  2  0  0  0  0
 19 20  1  0  0  0  0
 20 39  1  0  0  0  0
 20 40  1  0  0  0  0
 20 41  1  0  0  0  0
 21 22  1  0  0  0  0
 21 42  1  0  0  0  0
 22 23  1  0  0  0  0
 22 24  2  0  0  0  0
 24 25  1  0  0  0  0
 24 26  1  0  0  0  0
 25 43  1  0  0  0  0
 26 27  1  0  0  0  0
 27 44  1  0  0  0  0
 27 45  1  0  0  0  0
 27 46  1  0  0  0  0
M  END
$$$$
