p38a_2e
 OpenBabel02232411163D
Structure written by MMmdl.
 46 49  0  0  0  0  0  0  0  0999 V2000
   33.8920   37.9670   26.7620 C   0  0  0  0  0  0  0  0  0  0  0  0
   32.8360   36.9400   26.3320 C   0  0  0  0  0  0  0  0  0  0  0  0
   31.2440   38.6560   25.7830 C   0  0  0  0  0  0  0  0  0  0  0  0
   32.1200   39.7600   26.3760 C   0  0  0  0  0  0  0  0  0  0  0  0
   38.2720   36.5230   17.1440 C   0  0  0  0  0  0  0  0  0  0  0  0
   31.4770   37.4120   26.4710 O   0  0  0  0  0  0  0  0  0  0  0  0
   34.6810   35.0970   21.2000 C   0  0  0  0  0  0  0  0  0  0  0  0
   37.4840   36.0660   18.2030 C   0  0  0  0  0  0  0  0  0  0  0  0
   34.3120   39.1530   23.8170 C   0  0  0  0  0  0  0  0  0  0  0  0
   33.6250   39.4120   26.3180 C   0  0  0  0  0  0  0  0  0  0  0  0
   34.7960   37.9610   21.3700 C   0  0  0  0  0  0  0  0  0  0  0  0
   35.0970   37.3170   20.1210 C   0  0  0  0  0  0  0  0  0  0  0  0
   37.6650   36.6880   15.8930 C   0  0  0  0  0  0  0  0  0  0  0  0
   36.3240   36.3820   15.6420 C   0  0  0  0  0  0  0  0  0  0  0  0
   35.5410   35.9100   16.6970 C   0  0  0  0  0  0  0  0  0  0  0  0
   34.5690   37.1860   22.5460 C   0  0  0  0  0  0  0  0  0  0  0  0
   34.7200   39.3730   21.5070 C   0  0  0  0  0  0  0  0  0  0  0  0
   35.0720   35.9660   20.0610 C   0  0  0  0  0  0  0  0  0  0  0  0
   36.1380   35.7640   17.9550 C   0  0  0  0  0  0  0  0  0  0  0  0
   34.4510   34.9540   23.6940 C   0  0  0  0  0  0  0  0  0  0  0  0
   37.9100   35.9830   19.2040 H   0  0  0  0  0  0  0  0  0  0  0  0
   38.3860   37.2070   14.8980 F   0  0  0  0  0  0  0  0  0  0  0  0
   35.3370   35.1700   18.9530 O   0  0  0  0  0  0  0  0  0  0  0  0
   34.4800   39.9760   22.6780 N   0  0  0  0  0  0  0  0  0  0  0  0
   34.4620   33.9070   21.1420 O   0  0  0  0  0  0  0  0  0  0  0  0
   34.5730   35.7840   22.4640 N   0  0  0  0  0  0  0  0  0  0  0  0
   34.3270   37.7780   23.7640 N   0  0  0  0  0  0  0  0  0  0  0  0
   34.2210   39.8430   25.0100 N   0  0  0  0  0  0  0  0  0  0  0  0
   33.9470   37.9810   27.8830 H   0  0  0  0  0  0  0  0  0  0  0  0
   34.8930   37.6320   26.3880 H   0  0  0  0  0  0  0  0  0  0  0  0
   32.9780   36.6420   25.2700 H   0  0  0  0  0  0  0  0  0  0  0  0
   32.8490   36.0580   27.0140 H   0  0  0  0  0  0  0  0  0  0  0  0
   30.1690   38.8480   25.9860 H   0  0  0  0  0  0  0  0  0  0  0  0
   31.4430   38.5260   24.6970 H   0  0  0  0  0  0  0  0  0  0  0  0
   31.9170   40.7200   25.8470 H   0  0  0  0  0  0  0  0  0  0  0  0
   31.8610   39.9070   27.4540 H   0  0  0  0  0  0  0  0  0  0  0  0
   39.3210   36.7820   17.3040 H   0  0  0  0  0  0  0  0  0  0  0  0
   34.1630   40.0950   27.0540 H   0  0  0  0  0  0  0  0  0  0  0  0
   35.3470   37.9450   19.2630 H   0  0  0  0  0  0  0  0  0  0  0  0
   35.8810   36.5300   14.6560 H   0  0  0  0  0  0  0  0  0  0  0  0
   34.4830   35.6860   16.5400 H   0  0  0  0  0  0  0  0  0  0  0  0
   34.8450   40.0190   20.6220 H   0  0  0  0  0  0  0  0  0  0  0  0
   34.9730   35.4550   24.5540 H   0  0  0  0  0  0  0  0  0  0  0  0
   33.3710   34.8040   23.9540 H   0  0  0  0  0  0  0  0  0  0  0  0
   34.9290   33.9520   23.5260 H   0  0  0  0  0  0  0  0  0  0  0  0
   34.1600   40.8870   24.9290 H   0  0  0  0  0  0  0  0  0  0  0  0
  1  2  1  0  0  0  0
  1 10  1  0  0  0  0
  1 29  1  0  0  0  0
  1 30  1  0  0  0  0
  2  6  1  0  0  0  0
  2 31  1  0  0  0  0
  2 32  1  0  0  0  0
  3  4  1  0  0  0  0
  3  6  1  0  0  0  0
  3 33  1  0  0  0  0
  3 34  1  0  0  0  0
  4 10  1  0  0  0  0
  4 35  1  0  0  0  0
  4 36  1  0  0  0  0
  5  8  2  0  0  0  0
  5 13  1  0  0  0  0
  5 37  1  0  0  0  0
  7 18  1  0  0  0  0
  7 25  2  0  0  0  0
  7 26  1  0  0  0  0
  8 19  1  0  0  0  0
  8 21  1  0  0  0  0
  9 24  2  0  0  0  0
  9 27  1  0  0  0  0
  9 28  1  0  0  0  0
 10 28  1  0  0  0  0
 10 38  1  0  0  0  0
 11 12  1  0  0  0  0
 11 16  1  0  0  0  0
 11 17  2  0  0  0  0
 12 18  2  0  0  0  0
 12 39  1  0  0  0  0
 13 14  2  0  0  0  0
 13 22  1  0  0  0  0
 14 15  1  0  0  0  0
 14 40  1  0  0  0  0
 15 19  2  0  0  0  0
 15 41  1  0  0  0  0
 16 26  1  0  0  0  0
 16 27  2  0  0  0  0
 17 24  1  0  0  0  0
 17 42  1  0  0  0  0
 18 23  1  0  0  0  0
 19 23  1  0  0  0  0
 20 26  1  0  0  0  0
 20 43  1  0  0  0  0
 20 44  1  0  0  0  0
 20 45  1  0  0  0  0
 28 46  1  0  0  0  0
M  END
$$$$
