18638-1
 OpenBabel02232411163D
Structure written by MMmdl.
 52 53  0  0  0  0  0  0  0  0999 V2000
   23.9980   12.4660   30.3270 C   0  0  0  0  0  0  0  0  0  0  0  0
   23.5350   11.0250   30.4370 C   0  0  0  0  0  0  0  0  0  0  0  0
   22.2830   11.1360   31.2300 O   0  0  0  0  0  0  0  0  0  0  0  0
   21.6470   10.0030   31.5920 C   0  0  0  0  0  0  0  0  0  0  0  0
   22.1210    8.8060   31.1670 N   0  0  0  0  0  0  0  0  0  0  0  0
   21.3880    7.6790   31.5060 C   0  0  0  0  0  0  0  0  0  0  0  0
   20.2330    7.7360   32.2800 C   0  0  0  0  0  0  0  0  0  0  0  0
   19.7470    8.9940   32.7260 C   0  0  0  0  0  0  0  0  0  0  0  0
   18.5890    9.0500   33.4600 N   0  0  0  0  0  0  0  0  0  0  0  0
   20.4690   10.1800   32.3780 C   0  0  0  0  0  0  0  0  0  0  0  0
   20.0670   11.4850   32.7350 C   0  0  0  0  0  0  0  0  0  0  0  0
   19.7820   12.5800   32.9930 N   0  0  0  0  0  0  0  0  0  0  0  0
   21.9330    6.4900   30.9570 N   0  0  0  0  0  0  0  0  0  0  0  0
   21.2580    5.2530   30.8760 C   0  0  0  0  0  0  0  0  0  0  0  0
   20.1850    5.0520   31.4070 O   0  0  0  0  0  0  0  0  0  0  0  0
   21.9430    4.2260   29.9900 C   0  0  0  0  0  0  0  0  0  0  0  0
   23.3030    3.7800   30.4390 C   0  0  0  0  0  0  0  0  0  0  0  0
   24.4670    4.4680   29.9870 C   0  0  0  0  0  0  0  0  0  0  0  0
   24.1660    5.6000   29.2360 O   0  0  0  0  0  0  0  0  0  0  0  0
   25.2190    6.5890   29.0800 C   0  0  0  0  0  0  0  0  0  0  0  0
   25.7440    3.9760   30.2330 C   0  0  0  0  0  0  0  0  0  0  0  0
   25.9200    2.8110   31.0020 C   0  0  0  0  0  0  0  0  0  0  0  0
   27.5470    2.1780   31.1710 S   0  0  0  0  0  0  0  0  0  0  0  0
   28.5320    3.2860   31.1910 O   0  0  0  0  0  0  0  0  0  0  0  0
   27.6310    1.3800   32.4170 O   0  0  0  0  0  0  0  0  0  0  0  0
   27.7550    1.1830   29.7650 C   0  0  0  0  0  0  0  0  0  0  0  0
   24.7810    2.1840   31.5280 C   0  0  0  0  0  0  0  0  0  0  0  0
   23.4750    2.6490   31.2200 C   0  0  0  0  0  0  0  0  0  0  0  0
   25.0270    1.1290   32.3680 O   0  0  0  0  0  0  0  0  0  0  0  0
   23.9230    0.2310   32.6780 C   0  0  0  0  0  0  0  0  0  0  0  0
   24.9070   12.5000   29.6750 H   0  0  0  0  0  0  0  0  0  0  0  0
   23.2120   13.1040   29.8590 H   0  0  0  0  0  0  0  0  0  0  0  0
   24.2560   12.8880   31.3240 H   0  0  0  0  0  0  0  0  0  0  0  0
   23.2670   10.5870   29.4490 H   0  0  0  0  0  0  0  0  0  0  0  0
   24.2510   10.3860   30.9990 H   0  0  0  0  0  0  0  0  0  0  0  0
   19.6780    6.8300   32.5340 H   0  0  0  0  0  0  0  0  0  0  0  0
   18.0840    8.1850   33.7310 H   0  0  0  0  0  0  0  0  0  0  0  0
   18.1920    9.9410   33.7590 H   0  0  0  0  0  0  0  0  0  0  0  0
   22.8440    6.5880   30.4520 H   0  0  0  0  0  0  0  0  0  0  0  0
   21.2760    3.3260   29.9140 H   0  0  0  0  0  0  0  0  0  0  0  0
   22.0370    4.6850   28.9640 H   0  0  0  0  0  0  0  0  0  0  0  0
   24.6470    7.4650   28.6950 H   0  0  0  0  0  0  0  0  0  0  0  0
   25.6930    6.8150   30.0590 H   0  0  0  0  0  0  0  0  0  0  0  0
   25.9550    6.2210   28.3340 H   0  0  0  0  0  0  0  0  0  0  0  0
   26.6120    4.4910   29.8040 H   0  0  0  0  0  0  0  0  0  0  0  0
   27.7050    1.7800   28.8160 H   0  0  0  0  0  0  0  0  0  0  0  0
   28.7420    0.6510   29.7520 H   0  0  0  0  0  0  0  0  0  0  0  0
   26.9630    0.3940   29.6780 H   0  0  0  0  0  0  0  0  0  0  0  0
   22.6020    2.1040   31.5820 H   0  0  0  0  0  0  0  0  0  0  0  0
   23.5050   -0.1870   31.7370 H   0  0  0  0  0  0  0  0  0  0  0  0
   23.1570    0.7510   33.2920 H   0  0  0  0  0  0  0  0  0  0  0  0
   24.4370   -0.5630   33.2710 H   0  0  0  0  0  0  0  0  0  0  0  0
  1  2  1  0  0  0  0
  1 31  1  0  0  0  0
  1 32  1  0  0  0  0
  1 33  1  0  0  0  0
  2  3  1  0  0  0  0
  2 34  1  0  0  0  0
  2 35  1  0  0  0  0
  3  4  1  0  0  0  0
  4 10  2  0  0  0  0
  4  5  1  0  0  0  0
  5  6  2  0  0  0  0
  6  7  1  0  0  0  0
  6 13  1  0  0  0  0
  7  8  2  0  0  0  0
  7 36  1  0  0  0  0
  8  9  1  0  0  0  0
  8 10  1  0  0  0  0
  9 37  1  0  0  0  0
  9 38  1  0  0  0  0
 10 11  1  0  0  0  0
 11 12  3  0  0  0  0
 13 14  1  0  0  0  0
 13 39  1  0  0  0  0
 14 15  2  0  0  0  0
 14 16  1  0  0  0  0
 16 17  1  0  0  0  0
 16 40  1  0  0  0  0
 16 41  1  0  0  0  0
 17 28  2  0  0  0  0
 17 18  1  0  0  0  0
 18 19  1  0  0  0  0
 18 21  2  0  0  0  0
 19 20  1  0  0  0  0
 20 42  1  0  0  0  0
 20 43  1  0  0  0  0
 20 44  1  0  0  0  0
 21 22  1  0  0  0  0
 21 45  1  0  0  0  0
 22 23  1  0  0  0  0
 22 27  2  0  0  0  0
 23 24  2  0  0  0  0
 23 25  2  0  0  0  0
 23 26  1  0  0  0  0
 26 46  1  0  0  0  0
 26 47  1  0  0  0  0
 26 48  1  0  0  0  0
 27 28  1  0  0  0  0
 27 29  1  0  0  0  0
 28 49  1  0  0  0  0
 29 30  1  0  0  0  0
 30 50  1  0  0  0  0
 30 51  1  0  0  0  0
 30 52  1  0  0  0  0
M  END
$$$$
