26
 OpenBabel02232411153D
Structure written by MMmdl.
 49 52  0  0  0  0  0  0  0  0999 V2000
    2.0540   28.8440    6.8220 C   0  0  0  0  0  0  0  0  0  0  0  0
   -1.5170   31.3570    7.9050 C   0  0  0  0  0  0  0  0  0  0  0  0
    0.2130   26.0010    9.0730 C   0  0  0  0  0  0  0  0  0  0  0  0
   -0.7110   25.2330   10.0260 C   0  0  0  0  0  0  0  0  0  0  0  0
   -0.5720   23.7240    9.7290 C   0  0  0  0  0  0  0  0  0  0  0  0
   -1.4180   22.8910   10.7020 C   0  0  0  0  0  0  0  0  0  0  0  0
   -1.0780   23.2040   12.1690 C   0  0  0  0  0  0  0  0  0  0  0  0
   -1.2090   24.7060   12.4660 C   0  0  0  0  0  0  0  0  0  0  0  0
   -0.3660   25.5460   11.4950 C   0  0  0  0  0  0  0  0  0  0  0  0
    4.7160   25.2810    7.6720 C   0  0  0  0  0  0  0  0  0  0  0  0
    5.5180   24.9310    6.5640 C   0  0  0  0  0  0  0  0  0  0  0  0
    5.5690   25.7360    5.4230 C   0  0  0  0  0  0  0  0  0  0  0  0
    4.8050   26.9030    5.3860 C   0  0  0  0  0  0  0  0  0  0  0  0
    1.3650   27.8820    7.5580 N   0  0  0  0  0  0  0  0  0  0  0  0
    0.1480   28.1850    8.0770 C   0  0  0  0  0  0  0  0  0  0  0  0
   -0.5060   27.2780    8.8200 O   0  0  0  0  0  0  0  0  0  0  0  0
   -0.4250   29.4680    7.8650 C   0  0  0  0  0  0  0  0  0  0  0  0
   -1.5930   30.0910    8.3220 N   0  0  0  0  0  0  0  0  0  0  0  0
   -0.3030   31.6180    7.1730 N   0  0  0  0  0  0  0  0  0  0  0  0
    0.3880   30.4110    7.1140 C   0  0  0  0  0  0  0  0  0  0  0  0
    1.5960   30.1250    6.5330 N   0  0  0  0  0  0  0  0  0  0  0  0
    3.3340   28.5370    6.3910 N   0  0  0  0  0  0  0  0  0  0  0  0
    3.9980   27.2650    6.4790 C   0  0  0  0  0  0  0  0  0  0  0  0
    3.9620   26.4490    7.6290 C   0  0  0  0  0  0  0  0  0  0  0  0
   -2.2400   32.1470    8.0840 H   0  0  0  0  0  0  0  0  0  0  0  0
    1.1950   26.2410    9.5370 H   0  0  0  0  0  0  0  0  0  0  0  0
    0.3290   25.4980    8.0910 H   0  0  0  0  0  0  0  0  0  0  0  0
   -1.7690   25.5440    9.8400 H   0  0  0  0  0  0  0  0  0  0  0  0
   -0.9040   23.5180    8.6870 H   0  0  0  0  0  0  0  0  0  0  0  0
    0.4990   23.4230    9.8310 H   0  0  0  0  0  0  0  0  0  0  0  0
   -2.4930   23.1180   10.5280 H   0  0  0  0  0  0  0  0  0  0  0  0
   -1.2380   21.8070   10.5170 H   0  0  0  0  0  0  0  0  0  0  0  0
   -1.7680   22.6330   12.8340 H   0  0  0  0  0  0  0  0  0  0  0  0
   -0.0330   22.8780   12.3800 H   0  0  0  0  0  0  0  0  0  0  0  0
   -2.2800   25.0070   12.3930 H   0  0  0  0  0  0  0  0  0  0  0  0
   -0.8620   24.9050   13.5070 H   0  0  0  0  0  0  0  0  0  0  0  0
    0.7120   25.3240   11.6800 H   0  0  0  0  0  0  0  0  0  0  0  0
   -0.5420   26.6270   11.6980 H   0  0  0  0  0  0  0  0  0  0  0  0
    4.6890   24.6420    8.5570 H   0  0  0  0  0  0  0  0  0  0  0  0
    6.1890   25.4880    4.5600 H   0  0  0  0  0  0  0  0  0  0  0  0
    4.8590   27.5360    4.4970 H   0  0  0  0  0  0  0  0  0  0  0  0
   -0.0630   32.5060    6.7090 H   0  0  0  0  0  0  0  0  0  0  0  0
    3.7790   29.1870    5.6980 H   0  0  0  0  0  0  0  0  0  0  0  0
    3.3490   26.7230    8.4940 H   0  0  0  0  0  0  0  0  0  0  0  0
    6.2220   23.7560    6.7450 O   0  0  0  0  0  0  0  0  0  0  0  0
    7.1260   23.3590    5.6810 C   0  0  0  0  0  0  0  0  0  0  0  0
    6.5550   23.1610    4.7470 H   0  0  0  0  0  0  0  0  0  0  0  0
    7.9020   24.1410    5.5240 H   0  0  0  0  0  0  0  0  0  0  0  0
    7.5710   22.4240    6.0860 H   0  0  0  0  0  0  0  0  0  0  0  0
  1 14  2  0  0  0  0
  1 21  1  0  0  0  0
  1 22  1  0  0  0  0
  2 18  2  0  0  0  0
  2 19  1  0  0  0  0
  2 25  1  0  0  0  0
  3  4  1  0  0  0  0
  3 16  1  0  0  0  0
  3 26  1  0  0  0  0
  3 27  1  0  0  0  0
  4  5  1  0  0  0  0
  4  9  1  0  0  0  0
  4 28  1  0  0  0  0
  5  6  1  0  0  0  0
  5 29  1  0  0  0  0
  5 30  1  0  0  0  0
  6  7  1  0  0  0  0
  6 31  1  0  0  0  0
  6 32  1  0  0  0  0
  7  8  1  0  0  0  0
  7 33  1  0  0  0  0
  7 34  1  0  0  0  0
  8  9  1  0  0  0  0
  8 35  1  0  0  0  0
  8 36  1  0  0  0  0
  9 37  1  0  0  0  0
  9 38  1  0  0  0  0
 10 11  2  0  0  0  0
 10 24  1  0  0  0  0
 10 39  1  0  0  0  0
 11 12  1  0  0  0  0
 11 45  1  0  0  0  0
 12 13  2  0  0  0  0
 12 40  1  0  0  0  0
 13 23  1  0  0  0  0
 13 41  1  0  0  0  0
 14 15  1  0  0  0  0
 15 16  1  0  0  0  0
 15 17  2  0  0  0  0
 17 18  1  0  0  0  0
 17 20  1  0  0  0  0
 19 20  1  0  0  0  0
 19 42  1  0  0  0  0
 20 21  2  0  0  0  0
 22 23  1  0  0  0  0
 22 43  1  0  0  0  0
 23 24  2  0  0  0  0
 24 44  1  0  0  0  0
 45 46  1  0  0  0  0
 46 47  1  0  0  0  0
 46 48  1  0  0  0  0
 46 49  1  0  0  0  0
M  END
$$$$
