18636-1
 OpenBabel02232411163D
Structure written by MMmdl.
 38 39  0  0  0  0  0  0  0  0999 V2000
   23.2230   10.8570   29.0460 C   0  0  0  0  0  0  0  0  0  0  0  0
   23.5020   11.0690   30.5180 C   0  0  0  0  0  0  0  0  0  0  0  0
   22.2370   11.1330   31.2820 O   0  0  0  0  0  0  0  0  0  0  0  0
   21.5940    9.9910   31.6050 C   0  0  0  0  0  0  0  0  0  0  0  0
   22.0700    8.8040   31.1640 N   0  0  0  0  0  0  0  0  0  0  0  0
   21.3420    7.6650   31.4680 C   0  0  0  0  0  0  0  0  0  0  0  0
   20.1810    7.6950   32.2320 C   0  0  0  0  0  0  0  0  0  0  0  0
   19.6940    8.9440   32.7080 C   0  0  0  0  0  0  0  0  0  0  0  0
   18.5380    8.9900   33.4440 N   0  0  0  0  0  0  0  0  0  0  0  0
   20.4110   10.1420   32.3900 C   0  0  0  0  0  0  0  0  0  0  0  0
   20.0080   11.4390   32.7730 C   0  0  0  0  0  0  0  0  0  0  0  0
   19.7310   12.5320   33.0470 N   0  0  0  0  0  0  0  0  0  0  0  0
   21.9290    6.5150   30.8830 N   0  0  0  0  0  0  0  0  0  0  0  0
   21.3810    5.2140   30.8250 C   0  0  0  0  0  0  0  0  0  0  0  0
   20.3600    4.9020   31.3990 O   0  0  0  0  0  0  0  0  0  0  0  0
   22.1770    4.2660   29.9310 C   0  0  0  0  0  0  0  0  0  0  0  0
   23.4110    3.7520   30.6120 C   0  0  0  0  0  0  0  0  0  0  0  0
   24.6910    4.2850   30.3890 C   0  0  0  0  0  0  0  0  0  0  0  0
   25.0110    5.5970   29.0330 Br  0  0  0  0  0  0  0  0  0  0  0  0
   25.8050    3.8410   31.1080 C   0  0  0  0  0  0  0  0  0  0  0  0
   25.6650    2.8160   32.0460 C   0  0  0  0  0  0  0  0  0  0  0  0
   24.4060    2.2360   32.2240 C   0  0  0  0  0  0  0  0  0  0  0  0
   24.2140    0.7850   33.4480 Br  0  0  0  0  0  0  0  0  0  0  0  0
   23.2890    2.6850   31.5210 C   0  0  0  0  0  0  0  0  0  0  0  0
   24.1670   11.0140   28.4650 H   0  0  0  0  0  0  0  0  0  0  0  0
   22.4640   11.5770   28.6680 H   0  0  0  0  0  0  0  0  0  0  0  0
   22.8650    9.8200   28.8450 H   0  0  0  0  0  0  0  0  0  0  0  0
   23.8860   12.0960   30.7310 H   0  0  0  0  0  0  0  0  0  0  0  0
   24.1560   10.2770   30.9460 H   0  0  0  0  0  0  0  0  0  0  0  0
   19.6270    6.7820   32.4560 H   0  0  0  0  0  0  0  0  0  0  0  0
   18.0370    8.1240   33.7190 H   0  0  0  0  0  0  0  0  0  0  0  0
   18.1470    9.8780   33.7610 H   0  0  0  0  0  0  0  0  0  0  0  0
   22.8170    6.7020   30.3680 H   0  0  0  0  0  0  0  0  0  0  0  0
   21.5090    3.4040   29.6600 H   0  0  0  0  0  0  0  0  0  0  0  0
   22.4340    4.7990   28.9750 H   0  0  0  0  0  0  0  0  0  0  0  0
   26.7970    4.2840   30.9380 H   0  0  0  0  0  0  0  0  0  0  0  0
   26.5390    2.4720   32.6150 H   0  0  0  0  0  0  0  0  0  0  0  0
   22.3180    2.1980   31.6690 H   0  0  0  0  0  0  0  0  0  0  0  0
  1  2  1  0  0  0  0
  1 25  1  0  0  0  0
  1 26  1  0  0  0  0
  1 27  1  0  0  0  0
  2  3  1  0  0  0  0
  2 28  1  0  0  0  0
  2 29  1  0  0  0  0
  3  4  1  0  0  0  0
  4 10  2  0  0  0  0
  4  5  1  0  0  0  0
  5  6  2  0  0  0  0
  6  7  1  0  0  0  0
  6 13  1  0  0  0  0
  7  8  2  0  0  0  0
  7 30  1  0  0  0  0
  8  9  1  0  0  0  0
  8 10  1  0  0  0  0
  9 31  1  0  0  0  0
  9 32  1  0  0  0  0
 10 11  1  0  0  0  0
 11 12  3  0  0  0  0
 13 14  1  0  0  0  0
 13 33  1  0  0  0  0
 14 15  2  0  0  0  0
 14 16  1  0  0  0  0
 16 17  1  0  0  0  0
 16 34  1  0  0  0  0
 16 35  1  0  0  0  0
 17 24  2  0  0  0  0
 17 18  1  0  0  0  0
 18 19  1  0  0  0  0
 18 20  2  0  0  0  0
 20 21  1  0  0  0  0
 20 36  1  0  0  0  0
 21 22  2  0  0  0  0
 21 37  1  0  0  0  0
 22 23  1  0  0  0  0
 22 24  1  0  0  0  0
 24 38  1  0  0  0  0
M  END
$$$$
