p38a_2v
 OpenBabel02232411163D
Structure written by MMmdl.
 35 37  0  0  0  0  0  0  0  0999 V2000
   38.2700   36.5240   17.1840 C   0  0  0  0  0  0  0  0  0  0  0  0
   34.5390   35.1160   21.2510 C   0  0  0  0  0  0  0  0  0  0  0  0
   37.4750   36.0730   18.2340 C   0  0  0  0  0  0  0  0  0  0  0  0
   34.0770   39.2140   23.7810 C   0  0  0  0  0  0  0  0  0  0  0  0
   33.4350   39.1450   26.1920 C   0  0  0  0  0  0  0  0  0  0  0  0
   34.6510   37.9920   21.3780 C   0  0  0  0  0  0  0  0  0  0  0  0
   35.0280   37.3250   20.1620 C   0  0  0  0  0  0  0  0  0  0  0  0
   37.6340   36.6830   15.9450 C   0  0  0  0  0  0  0  0  0  0  0  0
   36.2870   36.3840   15.7260 C   0  0  0  0  0  0  0  0  0  0  0  0
   35.5120   35.9210   16.7950 C   0  0  0  0  0  0  0  0  0  0  0  0
   34.3000   37.2330   22.5340 C   0  0  0  0  0  0  0  0  0  0  0  0
   34.6210   39.4070   21.5060 C   0  0  0  0  0  0  0  0  0  0  0  0
   35.0070   35.9720   20.1300 C   0  0  0  0  0  0  0  0  0  0  0  0
   36.1110   35.7590   18.0470 C   0  0  0  0  0  0  0  0  0  0  0  0
   33.8460   35.0610   23.6770 C   0  0  0  0  0  0  0  0  0  0  0  0
   37.9960   35.9370   19.4460 F   0  0  0  0  0  0  0  0  0  0  0  0
   35.3750   35.1450   19.0690 O   0  0  0  0  0  0  0  0  0  0  0  0
   34.3440   40.0280   22.6610 N   0  0  0  0  0  0  0  0  0  0  0  0
   34.3980   33.9130   21.2090 O   0  0  0  0  0  0  0  0  0  0  0  0
   34.2400   35.8310   22.4640 N   0  0  0  0  0  0  0  0  0  0  0  0
   34.0050   37.8360   23.7320 N   0  0  0  0  0  0  0  0  0  0  0  0
   33.9520   39.8500   24.9960 N   0  0  0  0  0  0  0  0  0  0  0  0
   39.3240   36.7810   17.3260 H   0  0  0  0  0  0  0  0  0  0  0  0
   34.0150   38.2030   26.3800 H   0  0  0  0  0  0  0  0  0  0  0  0
   35.3300   37.9360   19.3090 H   0  0  0  0  0  0  0  0  0  0  0  0
   35.8270   36.5250   14.7460 H   0  0  0  0  0  0  0  0  0  0  0  0
   34.4500   35.7050   16.6440 H   0  0  0  0  0  0  0  0  0  0  0  0
   34.8210   40.0430   20.6270 H   0  0  0  0  0  0  0  0  0  0  0  0
   34.5090   35.3340   24.5430 H   0  0  0  0  0  0  0  0  0  0  0  0
   32.7850   35.3010   23.9570 H   0  0  0  0  0  0  0  0  0  0  0  0
   33.9350   33.9600   23.4840 H   0  0  0  0  0  0  0  0  0  0  0  0
   33.8250   40.8800   25.0260 H   0  0  0  0  0  0  0  0  0  0  0  0
   38.3420   37.1810   14.9340 F   0  0  0  0  0  0  0  0  0  0  0  0
   33.5660   39.8280   27.0740 H   0  0  0  0  0  0  0  0  0  0  0  0
   32.3490   38.8860   26.0870 H   0  0  0  0  0  0  0  0  0  0  0  0
  1  3  2  0  0  0  0
  1  8  1  0  0  0  0
  1 23  1  0  0  0  0
  2 13  1  0  0  0  0
  2 19  2  0  0  0  0
  2 20  1  0  0  0  0
  3 14  1  0  0  0  0
  3 16  1  0  0  0  0
  4 18  2  0  0  0  0
  4 21  1  0  0  0  0
  4 22  1  0  0  0  0
  5 22  1  0  0  0  0
  5 24  1  0  0  0  0
  5 34  1  0  0  0  0
  5 35  1  0  0  0  0
  6  7  1  0  0  0  0
  6 11  1  0  0  0  0
  6 12  2  0  0  0  0
  7 13  2  0  0  0  0
  7 25  1  0  0  0  0
  8  9  2  0  0  0  0
  8 33  1  0  0  0  0
  9 10  1  0  0  0  0
  9 26  1  0  0  0  0
 10 14  2  0  0  0  0
 10 27  1  0  0  0  0
 11 20  1  0  0  0  0
 11 21  2  0  0  0  0
 12 18  1  0  0  0  0
 12 28  1  0  0  0  0
 13 17  1  0  0  0  0
 14 17  1  0  0  0  0
 15 20  1  0  0  0  0
 15 29  1  0  0  0  0
 15 30  1  0  0  0  0
 15 31  1  0  0  0  0
 22 32  1  0  0  0  0
M  END
$$$$
