p38a_2j
 OpenBabel02232411163D
Structure written by MMmdl.
 48 51  0  0  0  0  0  0  0  0999 V2000
   32.1710   39.7650   27.4700 C   0  0  0  0  0  0  0  0  0  0  0  0
   32.2630   39.0790   28.8380 C   0  0  0  0  0  0  0  0  0  0  0  0
   34.6170   38.6250   28.5610 C   0  0  0  0  0  0  0  0  0  0  0  0
   34.6460   39.2850   27.1770 C   0  0  0  0  0  0  0  0  0  0  0  0
   36.0330   34.7080   15.7890 C   0  0  0  0  0  0  0  0  0  0  0  0
   33.5890   39.1970   29.4020 O   0  0  0  0  0  0  0  0  0  0  0  0
   34.9130   35.8160   21.2010 C   0  0  0  0  0  0  0  0  0  0  0  0
   36.5470   35.3810   16.8970 C   0  0  0  0  0  0  0  0  0  0  0  0
   33.5870   39.4900   24.0430 C   0  0  0  0  0  0  0  0  0  0  0  0
   33.2490   39.2000   26.5220 C   0  0  0  0  0  0  0  0  0  0  0  0
   34.4530   38.5910   21.6000 C   0  0  0  0  0  0  0  0  0  0  0  0
   35.1440   38.1390   20.4320 C   0  0  0  0  0  0  0  0  0  0  0  0
   33.8160   34.8990   16.8200 C   0  0  0  0  0  0  0  0  0  0  0  0
   34.3790   35.5740   17.9060 C   0  0  0  0  0  0  0  0  0  0  0  0
   34.2110   37.6830   22.6760 C   0  0  0  0  0  0  0  0  0  0  0  0
   34.0840   39.9480   21.7950 C   0  0  0  0  0  0  0  0  0  0  0  0
   35.4610   36.8280   20.2830 C   0  0  0  0  0  0  0  0  0  0  0  0
   35.7640   35.7820   17.9960 C   0  0  0  0  0  0  0  0  0  0  0  0
   34.1170   35.3640   23.5760 C   0  0  0  0  0  0  0  0  0  0  0  0
   37.8640   35.5970   16.9210 F   0  0  0  0  0  0  0  0  0  0  0  0
   36.4140   36.3620   19.2200 C   0  0  0  0  0  0  0  0  0  0  0  0
   33.6710   40.4150   22.9760 N   0  0  0  0  0  0  0  0  0  0  0  0
   34.8160   34.6210   21.0030 O   0  0  0  0  0  0  0  0  0  0  0  0
   34.4110   36.3190   22.4730 N   0  0  0  0  0  0  0  0  0  0  0  0
   33.7910   38.1320   23.9080 N   0  0  0  0  0  0  0  0  0  0  0  0
   33.2110   40.0030   25.2620 N   0  0  0  0  0  0  0  0  0  0  0  0
   31.1600   39.5850   27.0330 H   0  0  0  0  0  0  0  0  0  0  0  0
   32.3150   40.8660   27.5910 H   0  0  0  0  0  0  0  0  0  0  0  0
   31.6330   39.6020   29.5940 H   0  0  0  0  0  0  0  0  0  0  0  0
   31.9940   38.0000   28.7620 H   0  0  0  0  0  0  0  0  0  0  0  0
   34.4440   37.5270   28.4740 H   0  0  0  0  0  0  0  0  0  0  0  0
   35.5460   38.8490   29.1350 H   0  0  0  0  0  0  0  0  0  0  0  0
   34.9560   40.3540   27.2720 H   0  0  0  0  0  0  0  0  0  0  0  0
   35.3970   38.7580   26.5400 H   0  0  0  0  0  0  0  0  0  0  0  0
   36.6780   34.4050   14.9610 H   0  0  0  0  0  0  0  0  0  0  0  0
   33.0100   38.1260   26.2800 H   0  0  0  0  0  0  0  0  0  0  0  0
   35.4430   38.8990   19.7030 H   0  0  0  0  0  0  0  0  0  0  0  0
   32.7390   34.7170   16.7900 H   0  0  0  0  0  0  0  0  0  0  0  0
   33.7190   35.9380   18.6990 H   0  0  0  0  0  0  0  0  0  0  0  0
   34.1360   40.6530   20.9490 H   0  0  0  0  0  0  0  0  0  0  0  0
   34.7540   35.6040   24.4690 H   0  0  0  0  0  0  0  0  0  0  0  0
   33.0380   35.4400   23.8780 H   0  0  0  0  0  0  0  0  0  0  0  0
   34.3310   34.3160   23.2400 H   0  0  0  0  0  0  0  0  0  0  0  0
   33.2280   41.0360   25.3910 H   0  0  0  0  0  0  0  0  0  0  0  0
   37.0610   37.2300   18.9200 H   0  0  0  0  0  0  0  0  0  0  0  0
   37.0920   35.5850   19.6690 H   0  0  0  0  0  0  0  0  0  0  0  0
   34.6570   34.4610   15.7980 C   0  0  0  0  0  0  0  0  0  0  0  0
   34.1300   33.7280   14.8190 F   0  0  0  0  0  0  0  0  0  0  0  0
  1  2  1  0  0  0  0
  1 10  1  0  0  0  0
  1 27  1  0  0  0  0
  1 28  1  0  0  0  0
  2  6  1  0  0  0  0
  2 29  1  0  0  0  0
  2 30  1  0  0  0  0
  3  4  1  0  0  0  0
  3  6  1  0  0  0  0
  3 31  1  0  0  0  0
  3 32  1  0  0  0  0
  4 10  1  0  0  0  0
  4 33  1  0  0  0  0
  4 34  1  0  0  0  0
  5  8  2  0  0  0  0
  5 35  1  0  0  0  0
  5 47  1  0  0  0  0
  7 17  1  0  0  0  0
  7 23  2  0  0  0  0
  7 24  1  0  0  0  0
  8 18  1  0  0  0  0
  8 20  1  0  0  0  0
  9 22  2  0  0  0  0
  9 25  1  0  0  0  0
  9 26  1  0  0  0  0
 10 26  1  0  0  0  0
 10 36  1  0  0  0  0
 11 12  1  0  0  0  0
 11 15  1  0  0  0  0
 11 16  2  0  0  0  0
 12 17  2  0  0  0  0
 12 37  1  0  0  0  0
 13 14  1  0  0  0  0
 13 38  1  0  0  0  0
 13 47  2  0  0  0  0
 14 18  2  0  0  0  0
 14 39  1  0  0  0  0
 15 24  1  0  0  0  0
 15 25  2  0  0  0  0
 16 22  1  0  0  0  0
 16 40  1  0  0  0  0
 17 21  1  0  0  0  0
 18 21  1  0  0  0  0
 19 24  1  0  0  0  0
 19 41  1  0  0  0  0
 19 42  1  0  0  0  0
 19 43  1  0  0  0  0
 21 45  1  0  0  0  0
 21 46  1  0  0  0  0
 26 44  1  0  0  0  0
 47 48  1  0  0  0  0
M  END
$$$$
