p38a_3flw
 OpenBabel02232411163D
Structure written by MMmdl.
 49 51  0  0  0  0  0  0  0  0999 V2000
   36.3370   36.0160   15.8190 C   0  0  0  0  0  0  0  0  0  0  0  0
   37.6300   36.5170   16.0170 C   0  0  0  0  0  0  0  0  0  0  0  0
   33.8520   39.7300   27.6020 C   0  0  0  0  0  0  0  0  0  0  0  0
   35.2720   39.2180   27.8750 C   0  0  0  0  0  0  0  0  0  0  0  0
   31.7750   39.5270   26.1850 C   0  0  0  0  0  0  0  0  0  0  0  0
   34.2550   34.9930   23.9300 C   0  0  0  0  0  0  0  0  0  0  0  0
   34.4530   35.0370   16.8500 F   0  0  0  0  0  0  0  0  0  0  0  0
   35.6680   35.5590   16.9500 C   0  0  0  0  0  0  0  0  0  0  0  0
   38.2670   37.0330   14.9690 F   0  0  0  0  0  0  0  0  0  0  0  0
   38.2660   36.5370   17.2620 C   0  0  0  0  0  0  0  0  0  0  0  0
   37.5590   36.1050   18.3900 C   0  0  0  0  0  0  0  0  0  0  0  0
   36.2580   35.6200   18.2290 C   0  0  0  0  0  0  0  0  0  0  0  0
   35.5060   35.0440   19.2610 O   0  0  0  0  0  0  0  0  0  0  0  0
   35.1720   35.8910   20.3160 C   0  0  0  0  0  0  0  0  0  0  0  0
   35.2250   37.2420   20.3450 C   0  0  0  0  0  0  0  0  0  0  0  0
   34.8580   37.9200   21.5610 C   0  0  0  0  0  0  0  0  0  0  0  0
   34.7870   39.3330   21.6680 C   0  0  0  0  0  0  0  0  0  0  0  0
   34.4800   39.9620   22.8140 N   0  0  0  0  0  0  0  0  0  0  0  0
   34.6720   35.0550   21.4420 C   0  0  0  0  0  0  0  0  0  0  0  0
   34.4040   33.8760   21.3770 O   0  0  0  0  0  0  0  0  0  0  0  0
   34.5120   35.7650   22.6830 N   0  0  0  0  0  0  0  0  0  0  0  0
   34.5590   37.1680   22.7380 C   0  0  0  0  0  0  0  0  0  0  0  0
   34.2920   37.7830   23.9350 N   0  0  0  0  0  0  0  0  0  0  0  0
   34.2510   39.1600   23.9470 C   0  0  0  0  0  0  0  0  0  0  0  0
   34.0430   39.8190   25.1520 N   0  0  0  0  0  0  0  0  0  0  0  0
   33.2830   39.1830   26.2700 C   0  0  0  0  0  0  0  0  0  0  0  0
   31.0690   39.1160   24.8890 C   0  0  0  0  0  0  0  0  0  0  0  0
   31.1670   37.7170   24.5900 O   0  0  0  0  0  0  0  0  0  0  0  0
   35.8280   39.8330   29.0510 O   0  0  0  0  0  0  0  0  0  0  0  0
   35.8710   36.0090   14.8310 H   0  0  0  0  0  0  0  0  0  0  0  0
   33.1720   39.4120   28.4300 H   0  0  0  0  0  0  0  0  0  0  0  0
   33.8540   40.8490   27.5810 H   0  0  0  0  0  0  0  0  0  0  0  0
   35.2700   38.1130   28.0180 H   0  0  0  0  0  0  0  0  0  0  0  0
   35.9790   39.5380   27.0770 H   0  0  0  0  0  0  0  0  0  0  0  0
   31.2670   39.0420   27.0560 H   0  0  0  0  0  0  0  0  0  0  0  0
   31.6600   40.6350   26.2970 H   0  0  0  0  0  0  0  0  0  0  0  0
   33.2710   35.2900   24.3820 H   0  0  0  0  0  0  0  0  0  0  0  0
   34.2400   33.8940   23.7070 H   0  0  0  0  0  0  0  0  0  0  0  0
   35.0650   35.2050   24.6810 H   0  0  0  0  0  0  0  0  0  0  0  0
   39.2870   36.9130   17.3620 H   0  0  0  0  0  0  0  0  0  0  0  0
   38.0210   36.1740   19.3770 H   0  0  0  0  0  0  0  0  0  0  0  0
   35.5490   37.8480   19.4950 H   0  0  0  0  0  0  0  0  0  0  0  0
   34.9690   39.9630   20.7810 H   0  0  0  0  0  0  0  0  0  0  0  0
   33.9360   40.8560   25.1340 H   0  0  0  0  0  0  0  0  0  0  0  0
   33.4140   38.0680   26.2380 H   0  0  0  0  0  0  0  0  0  0  0  0
   29.9850   39.3720   24.9650 H   0  0  0  0  0  0  0  0  0  0  0  0
   31.5380   39.5900   23.9990 H   0  0  0  0  0  0  0  0  0  0  0  0
   30.9560   37.1940   25.4000 H   0  0  0  0  0  0  0  0  0  0  0  0
   35.2090   39.7000   29.8140 H   0  0  0  0  0  0  0  0  0  0  0  0
  1  2  2  0  0  0  0
  1  8  1  0  0  0  0
  1 30  1  0  0  0  0
  2  9  1  0  0  0  0
  2 10  1  0  0  0  0
  3  4  1  0  0  0  0
  3 26  1  0  0  0  0
  3 31  1  0  0  0  0
  3 32  1  0  0  0  0
  4 29  1  0  0  0  0
  4 33  1  0  0  0  0
  4 34  1  0  0  0  0
  5 26  1  0  0  0  0
  5 27  1  0  0  0  0
  5 35  1  0  0  0  0
  5 36  1  0  0  0  0
  6 21  1  0  0  0  0
  6 37  1  0  0  0  0
  6 38  1  0  0  0  0
  6 39  1  0  0  0  0
  7  8  1  0  0  0  0
  8 12  2  0  0  0  0
 10 11  2  0  0  0  0
 10 40  1  0  0  0  0
 11 12  1  0  0  0  0
 11 41  1  0  0  0  0
 12 13  1  0  0  0  0
 13 14  1  0  0  0  0
 14 15  2  0  0  0  0
 14 19  1  0  0  0  0
 15 16  1  0  0  0  0
 15 42  1  0  0  0  0
 16 17  2  0  0  0  0
 16 22  1  0  0  0  0
 17 18  1  0  0  0  0
 17 43  1  0  0  0  0
 18 24  2  0  0  0  0
 19 20  2  0  0  0  0
 19 21  1  0  0  0  0
 21 22  1  0  0  0  0
 22 23  2  0  0  0  0
 23 24  1  0  0  0  0
 24 25  1  0  0  0  0
 25 26  1  0  0  0  0
 25 44  1  0  0  0  0
 26 45  1  0  0  0  0
 27 28  1  0  0  0  0
 27 46  1  0  0  0  0
 27 47  1  0  0  0  0
 28 48  1  0  0  0  0
 29 49  1  0  0  0  0
M  END
$$$$
