5
 OpenBabel02232411173D

 52 54  0  0  1  0  0  0  0  0999 V2000
   18.0900  -13.0730   21.5040 N   0  0  0  0  0  0  0  0  0  0  0  0
   17.8620  -11.7200   20.9080 C   0  0  2  0  0  0  0  0  0  0  0  0
   17.1980  -13.6240   22.3840 C   0  0  0  0  0  0  0  0  0  0  0  0
   16.1840  -13.0190   22.7260 O   0  0  0  0  0  0  0  0  0  0  0  0
   16.4360  -11.6030   20.3010 C   0  0  0  0  0  0  0  0  0  0  0  0
   15.9130  -12.4810   19.6300 O   0  0  0  0  0  0  0  0  0  0  0  0
   18.9450  -11.5650   19.8230 C   0  0  0  0  0  0  0  0  0  0  0  0
   17.5010  -15.0390   22.9520 C   0  0  2  0  0  0  0  0  0  0  0  0
   15.8450  -10.3700   20.5140 N   0  0  0  0  0  0  0  0  0  0  0  0
   20.0030  -12.6530   20.0830 C   0  0  0  0  0  0  0  0  0  0  0  0
   16.1940  -15.8530   22.9080 N   0  3  0  0  0  0  0  0  0  0  0  0
   17.9960  -14.9720   24.4100 C   0  0  0  0  0  0  0  0  0  0  0  0
   14.4500  -10.0460   20.1260 C   0  0  0  0  0  0  0  0  0  0  0  0
   19.3360  -13.7140   20.9790 C   0  0  0  0  0  0  0  0  0  0  0  0
   19.4510  -14.5810   24.5170 C   0  0  0  0  0  0  0  0  0  0  0  0
   13.4280  -10.4890   21.1450 C   0  0  0  0  0  0  0  0  0  0  0  0
   19.8200  -13.4120   25.1920 C   0  0  0  0  0  0  0  0  0  0  0  0
   13.1060   -9.6480   22.2210 C   0  0  0  0  0  0  0  0  0  0  0  0
   21.1700  -13.0650   25.3220 C   0  0  0  0  0  0  0  0  0  0  0  0
   12.1040  -10.0190   23.1210 C   0  0  0  0  0  0  0  0  0  0  0  0
   22.1620  -13.9020   24.8050 C   0  0  0  0  0  0  0  0  0  0  0  0
   11.4340  -11.2360   22.9600 C   0  0  0  0  0  0  0  0  0  0  0  0
   21.7960  -15.0830   24.1470 C   0  0  0  0  0  0  0  0  0  0  0  0
   11.7870  -12.0950   21.9150 C   0  0  0  0  0  0  0  0  0  0  0  0
   20.4500  -15.4210   23.9980 C   0  0  0  0  0  0  0  0  0  0  0  0
   12.7730  -11.7190   20.9990 C   0  0  0  0  0  0  0  0  0  0  0  0
   18.0180  -10.9530   21.7160 H   0  0  0  0  0  0  0  0  0  0  0  0
   18.5160  -11.6910   18.8030 H   0  0  0  0  0  0  0  0  0  0  0  0
   19.4000  -10.5570   19.9130 H   0  0  0  0  0  0  0  0  0  0  0  0
   18.2430  -15.6150   22.3260 H   0  0  0  0  0  0  0  0  0  0  0  0
   16.3110   -9.6840   21.1360 H   0  0  0  0  0  0  0  0  0  0  0  0
   20.3400  -13.1190   19.1260 H   0  0  0  0  0  0  0  0  0  0  0  0
   20.8910  -12.2210   20.5990 H   0  0  0  0  0  0  0  0  0  0  0  0
   16.3680  -16.8150   23.3240 H   0  0  0  0  0  0  0  0  0  0  0  0
   15.4290  -15.3520   23.4660 H   0  0  0  0  0  0  0  0  0  0  0  0
   15.8770  -15.9890   21.9080 H   0  0  0  0  0  0  0  0  0  0  0  0
   17.3540  -14.2670   24.9960 H   0  0  0  0  0  0  0  0  0  0  0  0
   17.8960  -15.9940   24.8750 H   0  0  0  0  0  0  0  0  0  0  0  0
   14.4120   -8.9260   20.0070 H   0  0  0  0  0  0  0  0  0  0  0  0
   14.2360  -10.5150   19.1250 H   0  0  0  0  0  0  0  0  0  0  0  0
   20.0070  -13.9970   21.8300 H   0  0  0  0  0  0  0  0  0  0  0  0
   19.0740  -14.6250   20.3820 H   0  0  0  0  0  0  0  0  0  0  0  0
   19.0590  -12.7790   25.6390 H   0  0  0  0  0  0  0  0  0  0  0  0
   13.6350   -8.7050   22.3570 H   0  0  0  0  0  0  0  0  0  0  0  0
   21.4250  -12.1350   25.8340 H   0  0  0  0  0  0  0  0  0  0  0  0
   11.8470   -9.3630   23.9560 H   0  0  0  0  0  0  0  0  0  0  0  0
   23.2190  -13.6480   24.9190 H   0  0  0  0  0  0  0  0  0  0  0  0
   22.5590  -15.7570   23.7450 H   0  0  0  0  0  0  0  0  0  0  0  0
   11.2910  -13.0630   21.8180 H   0  0  0  0  0  0  0  0  0  0  0  0
   20.1730  -16.3460   23.4860 H   0  0  0  0  0  0  0  0  0  0  0  0
   13.0200  -12.3890   20.1720 H   0  0  0  0  0  0  0  0  0  0  0  0
   10.6330  -11.5240   23.6470 H   0  0  0  0  0  0  0  0  0  0  0  0
  1  2  1  0  0  0  0
  1 14  1  0  0  0  0
  1  3  1  0  0  0  0
  2  5  1  0  0  0  0
  2  7  1  0  0  0  0
  2 27  1  1  0  0  0
  3  8  1  0  0  0  0
  3  4  2  0  0  0  0
  5  6  2  0  0  0  0
  5  9  1  0  0  0  0
  7 10  1  0  0  0  0
  7 28  1  0  0  0  0
  7 29  1  0  0  0  0
  8 11  1  0  0  0  0
  8 12  1  0  0  0  0
  8 30  1  6  0  0  0
  9 13  1  0  0  0  0
  9 31  1  0  0  0  0
 10 14  1  0  0  0  0
 10 32  1  0  0  0  0
 10 33  1  0  0  0  0
 11 34  1  0  0  0  0
 11 35  1  0  0  0  0
 11 36  1  0  0  0  0
 12 15  1  0  0  0  0
 12 37  1  0  0  0  0
 12 38  1  0  0  0  0
 13 16  1  0  0  0  0
 13 39  1  0  0  0  0
 13 40  1  0  0  0  0
 14 41  1  0  0  0  0
 14 42  1  0  0  0  0
 15 17  2  0  0  0  0
 15 25  1  0  0  0  0
 16 18  2  0  0  0  0
 16 26  1  0  0  0  0
 17 19  1  0  0  0  0
 17 43  1  0  0  0  0
 18 20  1  0  0  0  0
 18 44  1  0  0  0  0
 19 21  2  0  0  0  0
 19 45  1  0  0  0  0
 20 22  2  0  0  0  0
 20 46  1  0  0  0  0
 21 23  1  0  0  0  0
 21 47  1  0  0  0  0
 22 24  1  0  0  0  0
 22 52  1  0  0  0  0
 23 25  2  0  0  0  0
 23 48  1  0  0  0  0
 24 26  2  0  0  0  0
 24 49  1  0  0  0  0
 25 50  1  0  0  0  0
 26 51  1  0  0  0  0
M  CHG  1  11   1
M  END
$$$$
