6e
 OpenBabel02232411173D

 52 54  0  0  1  0  0  0  0  0999 V2000
   17.9120  -13.0700   21.5150 N   0  0  0  0  0  0  0  0  0  0  0  0
   17.6100  -11.7150   20.9600 C   0  0  2  0  0  0  0  0  0  0  0  0
   17.0710  -13.6530   22.4230 C   0  0  0  0  0  0  0  0  0  0  0  0
   16.0550  -13.0690   22.7980 O   0  0  0  0  0  0  0  0  0  0  0  0
   16.1710  -11.6570   20.3770 C   0  0  0  0  0  0  0  0  0  0  0  0
   15.6480  -12.5700   19.7570 O   0  0  0  0  0  0  0  0  0  0  0  0
   18.6810  -11.4690   19.8810 C   0  0  0  0  0  0  0  0  0  0  0  0
   17.4110  -15.0660   22.9640 C   0  0  2  0  0  0  0  0  0  0  0  0
   15.5480  -10.4310   20.5630 N   0  0  0  0  0  0  0  0  0  0  0  0
   19.7710  -12.5420   20.0630 C   0  0  0  0  0  0  0  0  0  0  0  0
   16.1130  -15.8960   22.9320 N   0  3  0  0  0  0  0  0  0  0  0  0
   17.9320  -15.0150   24.4140 C   0  0  0  0  0  0  0  0  0  0  0  0
   14.1270  -10.1750   20.2240 C   0  0  0  0  0  0  0  0  0  0  0  0
   19.1730  -13.6460   20.9560 C   0  0  0  0  0  0  0  0  0  0  0  0
   19.3780  -14.5890   24.5100 C   0  0  0  0  0  0  0  0  0  0  0  0
   13.2320  -10.2040   21.4390 C   0  0  0  0  0  0  0  0  0  0  0  0
   20.3910  -15.3710   23.9340 C   0  0  0  0  0  0  0  0  0  0  0  0
   12.2740  -11.2020   21.6740 C   0  0  0  0  0  0  0  0  0  0  0  0
   21.7300  -15.0020   24.0800 C   0  0  0  0  0  0  0  0  0  0  0  0
   11.3850  -11.1640   22.7540 C   0  0  0  0  0  0  0  0  0  0  0  0
   22.0740  -13.8430   24.7870 C   0  0  0  0  0  0  0  0  0  0  0  0
   11.4640  -10.1010   23.6550 C   0  0  0  0  0  0  0  0  0  0  0  0
   21.0670  -13.0620   25.3610 C   0  0  0  0  0  0  0  0  0  0  0  0
   12.4450   -9.1220   23.4610 C   0  0  0  0  0  0  0  0  0  0  0  0
   19.7270  -13.4460   25.2400 C   0  0  0  0  0  0  0  0  0  0  0  0
   13.3160   -9.1590   22.3720 C   0  0  0  0  0  0  0  0  0  0  0  0
   17.7300  -10.9630   21.7880 H   0  0  0  0  0  0  0  0  0  0  0  0
   18.2470  -11.5340   18.8570 H   0  0  0  0  0  0  0  0  0  0  0  0
   19.1070  -10.4550   20.0380 H   0  0  0  0  0  0  0  0  0  0  0  0
   18.1520  -15.6190   22.3160 H   0  0  0  0  0  0  0  0  0  0  0  0
   16.0240   -9.7000   21.1220 H   0  0  0  0  0  0  0  0  0  0  0  0
   20.0790  -12.9730   19.0800 H   0  0  0  0  0  0  0  0  0  0  0  0
   20.6730  -12.1050   20.5520 H   0  0  0  0  0  0  0  0  0  0  0  0
   16.2920  -16.8430   23.3810 H   0  0  0  0  0  0  0  0  0  0  0  0
   15.3330  -15.3830   23.4590 H   0  0  0  0  0  0  0  0  0  0  0  0
   15.8150  -16.0680   21.9300 H   0  0  0  0  0  0  0  0  0  0  0  0
   17.2820  -14.3400   25.0260 H   0  0  0  0  0  0  0  0  0  0  0  0
   17.8700  -16.0490   24.8590 H   0  0  0  0  0  0  0  0  0  0  0  0
   14.0780   -9.1390   19.7790 H   0  0  0  0  0  0  0  0  0  0  0  0
   13.7970  -10.9070   19.4380 H   0  0  0  0  0  0  0  0  0  0  0  0
   19.8720  -13.9100   21.7900 H   0  0  0  0  0  0  0  0  0  0  0  0
   18.9390  -14.5610   20.3530 H   0  0  0  0  0  0  0  0  0  0  0  0
   20.1350  -16.2800   23.3830 H   0  0  0  0  0  0  0  0  0  0  0  0
   12.1860  -12.2330   20.8330 F   0  0  0  0  0  0  0  0  0  0  0  0
   22.5050  -15.6380   23.6400 H   0  0  0  0  0  0  0  0  0  0  0  0
   10.6320  -11.9480   22.9000 H   0  0  0  0  0  0  0  0  0  0  0  0
   23.1250  -13.5620   24.8940 H   0  0  0  0  0  0  0  0  0  0  0  0
   21.3040  -12.1500   25.9140 H   0  0  0  0  0  0  0  0  0  0  0  0
   12.6200   -7.8540   24.6090 Cl  0  0  0  0  0  0  0  0  0  0  0  0
   18.9560  -12.8670   25.7390 H   0  0  0  0  0  0  0  0  0  0  0  0
   14.0670   -8.3800   22.2400 H   0  0  0  0  0  0  0  0  0  0  0  0
   10.7600  -10.0440   24.4930 H   0  0  0  0  0  0  0  0  0  0  0  0
  1  2  1  0  0  0  0
  1 14  1  0  0  0  0
  1  3  1  0  0  0  0
  2  5  1  0  0  0  0
  2  7  1  0  0  0  0
  2 27  1  1  0  0  0
  3  8  1  0  0  0  0
  3  4  2  0  0  0  0
  5  6  2  0  0  0  0
  5  9  1  0  0  0  0
  7 10  1  0  0  0  0
  7 28  1  0  0  0  0
  7 29  1  0  0  0  0
  8 11  1  0  0  0  0
  8 12  1  0  0  0  0
  8 30  1  6  0  0  0
  9 13  1  0  0  0  0
  9 31  1  0  0  0  0
 10 14  1  0  0  0  0
 10 32  1  0  0  0  0
 10 33  1  0  0  0  0
 11 34  1  0  0  0  0
 11 35  1  0  0  0  0
 11 36  1  0  0  0  0
 12 15  1  0  0  0  0
 12 37  1  0  0  0  0
 12 38  1  0  0  0  0
 13 16  1  0  0  0  0
 13 39  1  0  0  0  0
 13 40  1  0  0  0  0
 14 41  1  0  0  0  0
 14 42  1  0  0  0  0
 15 17  2  0  0  0  0
 15 25  1  0  0  0  0
 16 18  2  0  0  0  0
 16 26  1  0  0  0  0
 17 19  1  0  0  0  0
 17 43  1  0  0  0  0
 18 20  1  0  0  0  0
 18 44  1  0  0  0  0
 19 21  2  0  0  0  0
 19 45  1  0  0  0  0
 20 22  2  0  0  0  0
 20 46  1  0  0  0  0
 21 23  1  0  0  0  0
 21 47  1  0  0  0  0
 22 24  1  0  0  0  0
 22 52  1  0  0  0  0
 23 25  2  0  0  0  0
 23 48  1  0  0  0  0
 24 26  2  0  0  0  0
 24 49  1  0  0  0  0
 25 50  1  0  0  0  0
 26 51  1  0  0  0  0
M  CHG  1  11   1
M  END
$$$$
