p38a_3flw
 OpenBabel02232411163D
Structure written by MMmdl.
 49 51  0  0  0  0  0  0  0  0999 V2000
   36.3340   35.9840   15.8740 C   0  0  0  0  0  0  0  0  0  0  0  0
   37.6270   36.4790   16.0820 C   0  0  0  0  0  0  0  0  0  0  0  0
   34.4460   39.8060   27.5960 C   0  0  0  0  0  0  0  0  0  0  0  0
   34.0850   39.2580   28.9810 C   0  0  0  0  0  0  0  0  0  0  0  0
   32.1350   39.4330   26.5430 C   0  0  0  0  0  0  0  0  0  0  0  0
   34.0880   35.0190   23.9510 C   0  0  0  0  0  0  0  0  0  0  0  0
   34.4350   35.0200   16.8930 F   0  0  0  0  0  0  0  0  0  0  0  0
   35.6530   35.5320   17.0010 C   0  0  0  0  0  0  0  0  0  0  0  0
   38.2770   36.9870   15.0370 F   0  0  0  0  0  0  0  0  0  0  0  0
   38.2530   36.4980   17.3310 C   0  0  0  0  0  0  0  0  0  0  0  0
   37.5370   36.0700   18.4540 C   0  0  0  0  0  0  0  0  0  0  0  0
   36.2350   35.5890   18.2840 C   0  0  0  0  0  0  0  0  0  0  0  0
   35.4740   35.0190   19.3130 O   0  0  0  0  0  0  0  0  0  0  0  0
   35.1350   35.8750   20.3590 C   0  0  0  0  0  0  0  0  0  0  0  0
   35.2170   37.2250   20.3820 C   0  0  0  0  0  0  0  0  0  0  0  0
   34.8540   37.9160   21.5900 C   0  0  0  0  0  0  0  0  0  0  0  0
   34.8240   39.3310   21.6900 C   0  0  0  0  0  0  0  0  0  0  0  0
   34.5610   39.9770   22.8380 N   0  0  0  0  0  0  0  0  0  0  0  0
   34.5990   35.0550   21.4800 C   0  0  0  0  0  0  0  0  0  0  0  0
   34.3250   33.8780   21.4250 O   0  0  0  0  0  0  0  0  0  0  0  0
   34.4030   35.7820   22.7110 N   0  0  0  0  0  0  0  0  0  0  0  0
   34.5140   37.1780   22.7630 C   0  0  0  0  0  0  0  0  0  0  0  0
   34.2560   37.8080   23.9570 N   0  0  0  0  0  0  0  0  0  0  0  0
   34.3250   39.1890   23.9770 C   0  0  0  0  0  0  0  0  0  0  0  0
   34.1980   39.8470   25.1820 N   0  0  0  0  0  0  0  0  0  0  0  0
   33.6570   39.1910   26.4160 C   0  0  0  0  0  0  0  0  0  0  0  0
   31.2940   39.0160   25.3270 C   0  0  0  0  0  0  0  0  0  0  0  0
   31.4150   37.6230   25.0120 O   0  0  0  0  0  0  0  0  0  0  0  0
   34.5180   37.9020   29.1820 O   0  0  0  0  0  0  0  0  0  0  0  0
   35.8750   35.9780   14.8820 H   0  0  0  0  0  0  0  0  0  0  0  0
   34.2710   40.9140   27.6160 H   0  0  0  0  0  0  0  0  0  0  0  0
   35.5380   39.6390   27.4130 H   0  0  0  0  0  0  0  0  0  0  0  0
   34.6520   39.8190   29.7650 H   0  0  0  0  0  0  0  0  0  0  0  0
   32.9890   39.3210   29.1740 H   0  0  0  0  0  0  0  0  0  0  0  0
   31.7710   38.8700   27.4370 H   0  0  0  0  0  0  0  0  0  0  0  0
   31.9660   40.5240   26.7250 H   0  0  0  0  0  0  0  0  0  0  0  0
   34.7230   35.3880   24.8020 H   0  0  0  0  0  0  0  0  0  0  0  0
   33.0080   35.1520   24.2230 H   0  0  0  0  0  0  0  0  0  0  0  0
   34.2960   33.9280   23.7930 H   0  0  0  0  0  0  0  0  0  0  0  0
   39.2760   36.8720   17.4380 H   0  0  0  0  0  0  0  0  0  0  0  0
   37.9920   36.1360   19.4450 H   0  0  0  0  0  0  0  0  0  0  0  0
   35.5650   37.8200   19.5340 H   0  0  0  0  0  0  0  0  0  0  0  0
   35.0060   39.9500   20.7960 H   0  0  0  0  0  0  0  0  0  0  0  0
   34.0770   40.8820   25.1780 H   0  0  0  0  0  0  0  0  0  0  0  0
   33.8630   38.0900   26.3710 H   0  0  0  0  0  0  0  0  0  0  0  0
   30.2090   39.1300   25.5580 H   0  0  0  0  0  0  0  0  0  0  0  0
   31.5790   39.6130   24.4320 H   0  0  0  0  0  0  0  0  0  0  0  0
   32.3660   37.4290   24.8280 H   0  0  0  0  0  0  0  0  0  0  0  0
   34.0930   37.3230   28.5030 H   0  0  0  0  0  0  0  0  0  0  0  0
  1  2  2  0  0  0  0
  1  8  1  0  0  0  0
  1 30  1  0  0  0  0
  2  9  1  0  0  0  0
  2 10  1  0  0  0  0
  3  4  1  0  0  0  0
  3 26  1  0  0  0  0
  3 31  1  0  0  0  0
  3 32  1  0  0  0  0
  4 29  1  0  0  0  0
  4 33  1  0  0  0  0
  4 34  1  0  0  0  0
  5 26  1  0  0  0  0
  5 27  1  0  0  0  0
  5 35  1  0  0  0  0
  5 36  1  0  0  0  0
  6 21  1  0  0  0  0
  6 37  1  0  0  0  0
  6 38  1  0  0  0  0
  6 39  1  0  0  0  0
  7  8  1  0  0  0  0
  8 12  2  0  0  0  0
 10 11  2  0  0  0  0
 10 40  1  0  0  0  0
 11 12  1  0  0  0  0
 11 41  1  0  0  0  0
 12 13  1  0  0  0  0
 13 14  1  0  0  0  0
 14 15  2  0  0  0  0
 14 19  1  0  0  0  0
 15 16  1  0  0  0  0
 15 42  1  0  0  0  0
 16 17  2  0  0  0  0
 16 22  1  0  0  0  0
 17 18  1  0  0  0  0
 17 43  1  0  0  0  0
 18 24  2  0  0  0  0
 19 20  2  0  0  0  0
 19 21  1  0  0  0  0
 21 22  1  0  0  0  0
 22 23  2  0  0  0  0
 23 24  1  0  0  0  0
 24 25  1  0  0  0  0
 25 26  1  0  0  0  0
 25 44  1  0  0  0  0
 26 45  1  0  0  0  0
 27 28  1  0  0  0  0
 27 46  1  0  0  0  0
 27 47  1  0  0  0  0
 28 48  1  0  0  0  0
 29 49  1  0  0  0  0
M  END
$$$$
