45 flip
                    3D
 Schrodinger Suite 2022-3.
 48 51  0  0  1  0  0  0  0  0999 V2000
    3.4710  -48.4110    7.1880 O   0  0  0  0  0  0  0  0  0  0  0  0
    3.0340  -49.2600    6.3990 C   0  0  0  0  0  0  0  0  0  0  0  0
    3.6990  -49.9930    5.6430 O   0  5  0  0  0  0  0  0  0  0  0  0
    1.5110  -49.4900    6.3500 C   0  0  0  0  0  0  0  0  0  0  0  0
   -0.3970  -50.7400    6.5540 C   0  0  0  0  0  0  0  0  0  0  0  0
   -1.3540  -51.7410    6.7900 C   0  0  0  0  0  0  0  0  0  0  0  0
   -2.6800  -51.4300    6.5290 C   0  0  0  0  0  0  0  0  0  0  0  0
   -3.0550  -50.1530    6.0500 C   0  0  0  0  0  0  0  0  0  0  0  0
   -2.1130  -49.1610    5.8120 C   0  0  0  0  0  0  0  0  0  0  0  0
   -0.7580  -49.4350    6.0570 C   0  0  0  0  0  0  0  0  0  0  0  0
    0.4670  -48.6700    5.9430 C   0  0  0  0  0  0  0  0  0  0  0  0
    0.5170  -47.2630    5.4640 C   0  0  0  0  0  0  0  0  0  0  0  0
    0.4360  -46.2380    6.6100 C   0  0  0  0  0  0  0  0  0  0  0  0
   -0.8920  -46.2920    7.3670 C   0  0  0  0  0  0  0  0  0  0  0  0
   -1.9080  -45.9140    6.3760 O   0  0  0  0  0  0  0  0  0  0  0  0
   -3.1380  -45.4440    6.7680 C   0  0  0  0  0  0  0  0  0  0  0  0
   -5.6610  -44.3140    7.1440 C   0  0  0  0  0  0  0  0  0  0  0  0
   -4.9070  -43.9630    6.0240 C   0  0  0  0  0  0  0  0  0  0  0  0
   -3.6450  -44.5150    5.8360 C   0  0  0  0  0  0  0  0  0  0  0  0
   -1.0730  -52.7230    7.1680 H   0  0  0  0  0  0  0  0  0  0  0  0
   -3.4570  -52.1760    6.6980 H   0  0  0  0  0  0  0  0  0  0  0  0
   -4.1120  -49.9520    5.8720 H   0  0  0  0  0  0  0  0  0  0  0  0
   -2.4310  -48.1780    5.4550 H   0  0  0  0  0  0  0  0  0  0  0  0
   -0.3610  -47.0830    4.7880 H   0  0  0  0  0  0  0  0  0  0  0  0
    1.4530  -47.0690    4.8890 H   0  0  0  0  0  0  0  0  0  0  0  0
    0.5590  -45.2140    6.1940 H   0  0  0  0  0  0  0  0  0  0  0  0
    1.2460  -46.4440    7.3490 H   0  0  0  0  0  0  0  0  0  0  0  0
   -0.9250  -45.5540    8.1950 H   0  0  0  0  0  0  0  0  0  0  0  0
   -1.1310  -47.3330    7.6750 H   0  0  0  0  0  0  0  0  0  0  0  0
   -3.0530  -44.2410    4.9720 H   0  0  0  0  0  0  0  0  0  0  0  0
   -5.1670  -45.2510    8.0660 C   0  0  0  0  0  0  0  0  0  0  0  0
   -3.9070  -45.8550    7.8830 C   0  0  0  0  0  0  0  0  0  0  0  0
   -3.4620  -46.9880    8.7650 C   0  0  0  0  0  0  0  0  0  0  0  0
   -4.2540  -47.1470   10.0670 C   0  0  0  0  0  0  0  0  0  0  0  0
   -5.7500  -46.9730    9.8130 C   0  0  0  0  0  0  0  0  0  0  0  0
   -6.0460  -45.5820    9.2450 C   0  0  0  0  0  0  0  0  0  0  0  0
   -5.3070  -43.2520    5.3020 H   0  0  0  0  0  0  0  0  0  0  0  0
   -6.6450  -43.8740    7.2920 H   0  0  0  0  0  0  0  0  0  0  0  0
   -2.4090  -46.8460    9.0740 H   0  0  0  0  0  0  0  0  0  0  0  0
   -3.5660  -47.9300    8.1630 H   0  0  0  0  0  0  0  0  0  0  0  0
   -3.9090  -46.3940   10.8020 H   0  0  0  0  0  0  0  0  0  0  0  0
   -4.0810  -48.1630   10.4910 H   0  0  0  0  0  0  0  0  0  0  0  0
   -6.3160  -47.1220   10.7540 H   0  0  0  0  0  0  0  0  0  0  0  0
   -6.0580  -47.7490    9.0730 H   0  0  0  0  0  0  0  0  0  0  0  0
   -7.1220  -45.5390    8.9430 H   0  0  0  0  0  0  0  0  0  0  0  0
   -5.8830  -44.8100   10.0360 H   0  0  0  0  0  0  0  0  0  0  0  0
    0.9970  -50.7450    6.7310 N   0  0  0  0  0  0  0  0  0  0  0  0
    1.5140  -51.5540    7.0560 H   0  0  0  0  0  0  0  0  0  0  0  0
  1  2  2  0  0  0  0
  2  3  1  0  0  0  0
  2  4  1  0  0  0  0
  4 11  2  0  0  0  0
  4 47  1  0  0  0  0
  5  6  1  0  0  0  0
  5 10  2  0  0  0  0
  5 47  1  0  0  0  0
  6  7  2  0  0  0  0
  6 20  1  0  0  0  0
  7  8  1  0  0  0  0
  7 21  1  0  0  0  0
  8  9  2  0  0  0  0
  8 22  1  0  0  0  0
  9 10  1  0  0  0  0
  9 23  1  0  0  0  0
 10 11  1  0  0  0  0
 11 12  1  0  0  0  0
 12 24  1  0  0  0  0
 12 25  1  0  0  0  0
 12 13  1  0  0  0  0
 13 14  1  0  0  0  0
 13 26  1  0  0  0  0
 13 27  1  0  0  0  0
 14 15  1  0  0  0  0
 14 28  1  0  0  0  0
 14 29  1  0  0  0  0
 15 16  1  0  0  0  0
 16 19  2  0  0  0  0
 16 32  1  0  0  0  0
 17 18  2  0  0  0  0
 17 31  1  0  0  0  0
 17 38  1  0  0  0  0
 18 19  1  0  0  0  0
 18 37  1  0  0  0  0
 19 30  1  0  0  0  0
 31 32  2  0  0  0  0
 31 36  1  0  0  0  0
 32 33  1  0  0  0  0
 33 34  1  0  0  0  0
 33 39  1  0  0  0  0
 33 40  1  0  0  0  0
 34 35  1  0  0  0  0
 34 41  1  0  0  0  0
 34 42  1  0  0  0  0
 35 36  1  0  0  0  0
 35 43  1  0  0  0  0
 35 44  1  0  0  0  0
 36 45  1  0  0  0  0
 36 46  1  0  0  0  0
 47 48  1  0  0  0  0
M  CHG  1   3  -1
M  END
$$$$
