17124-1
 OpenBabel02232411163D
Structure written by MMmdl.
 46 47  0  0  0  0  0  0  0  0999 V2000
   23.2150   10.8200   29.0730 C   0  0  0  0  0  0  0  0  0  0  0  0
   23.4820   11.0490   30.5460 C   0  0  0  0  0  0  0  0  0  0  0  0
   22.2130   11.1580   31.2960 O   0  0  0  0  0  0  0  0  0  0  0  0
   21.5470   10.0300   31.6330 C   0  0  0  0  0  0  0  0  0  0  0  0
   22.0060    8.8330   31.2030 N   0  0  0  0  0  0  0  0  0  0  0  0
   21.2550    7.7090   31.5090 C   0  0  0  0  0  0  0  0  0  0  0  0
   20.0950    7.7650   32.2750 C   0  0  0  0  0  0  0  0  0  0  0  0
   19.6330    9.0240   32.7430 C   0  0  0  0  0  0  0  0  0  0  0  0
   18.4820    9.0840   33.4870 N   0  0  0  0  0  0  0  0  0  0  0  0
   20.3650   10.2090   32.4120 C   0  0  0  0  0  0  0  0  0  0  0  0
   19.9720   11.5150   32.7740 C   0  0  0  0  0  0  0  0  0  0  0  0
   19.6970   12.6120   33.0310 N   0  0  0  0  0  0  0  0  0  0  0  0
   21.8130    6.5470   30.9330 N   0  0  0  0  0  0  0  0  0  0  0  0
   21.2110    5.2730   30.8400 C   0  0  0  0  0  0  0  0  0  0  0  0
   20.1340    5.0190   31.3360 O   0  0  0  0  0  0  0  0  0  0  0  0
   22.0120    4.2900   29.9960 C   0  0  0  0  0  0  0  0  0  0  0  0
   23.3680    3.9830   30.5600 C   0  0  0  0  0  0  0  0  0  0  0  0
   24.4740    4.8290   30.2880 C   0  0  0  0  0  0  0  0  0  0  0  0
   24.1600    5.9020   29.4640 O   0  0  0  0  0  0  0  0  0  0  0  0
   25.1370    6.9730   29.3460 C   0  0  0  0  0  0  0  0  0  0  0  0
   25.7480    4.5610   30.7960 C   0  0  0  0  0  0  0  0  0  0  0  0
   25.9350    3.4310   31.5900 C   0  0  0  0  0  0  0  0  0  0  0  0
   27.6690    3.0650   32.2760 Br  0  0  0  0  0  0  0  0  0  0  0  0
   24.8510    2.5710   31.8650 C   0  0  0  0  0  0  0  0  0  0  0  0
   23.5760    2.8470   31.3440 C   0  0  0  0  0  0  0  0  0  0  0  0
   25.1800    1.5090   32.6710 O   0  0  0  0  0  0  0  0  0  0  0  0
   24.1870    0.4650   32.8560 C   0  0  0  0  0  0  0  0  0  0  0  0
   22.7740    9.8120   28.8930 H   0  0  0  0  0  0  0  0  0  0  0  0
   22.5250   11.5910   28.6620 H   0  0  0  0  0  0  0  0  0  0  0  0
   24.1800   10.8840   28.5120 H   0  0  0  0  0  0  0  0  0  0  0  0
   23.8970   12.0660   30.7470 H   0  0  0  0  0  0  0  0  0  0  0  0
   24.1100   10.2430   30.9900 H   0  0  0  0  0  0  0  0  0  0  0  0
   19.5240    6.8630   32.5030 H   0  0  0  0  0  0  0  0  0  0  0  0
   17.9750    8.2190   33.7570 H   0  0  0  0  0  0  0  0  0  0  0  0
   18.0950    9.9750   33.7990 H   0  0  0  0  0  0  0  0  0  0  0  0
   22.7300    6.6970   30.4390 H   0  0  0  0  0  0  0  0  0  0  0  0
   21.4200    3.3430   29.8970 H   0  0  0  0  0  0  0  0  0  0  0  0
   22.1340    4.7410   28.9720 H   0  0  0  0  0  0  0  0  0  0  0  0
   24.5560    7.7390   28.7830 H   0  0  0  0  0  0  0  0  0  0  0  0
   25.4290    7.3520   30.3490 H   0  0  0  0  0  0  0  0  0  0  0  0
   26.0100    6.6130   28.7600 H   0  0  0  0  0  0  0  0  0  0  0  0
   26.5960    5.2190   30.5700 H   0  0  0  0  0  0  0  0  0  0  0  0
   22.7420    2.1710   31.5480 H   0  0  0  0  0  0  0  0  0  0  0  0
   24.7590   -0.2770   33.4650 H   0  0  0  0  0  0  0  0  0  0  0  0
   23.3160    0.8570   33.4240 H   0  0  0  0  0  0  0  0  0  0  0  0
   23.8950    0.0330   31.8750 H   0  0  0  0  0  0  0  0  0  0  0  0
  1  2  1  0  0  0  0
  1 28  1  0  0  0  0
  1 29  1  0  0  0  0
  1 30  1  0  0  0  0
  2  3  1  0  0  0  0
  2 31  1  0  0  0  0
  2 32  1  0  0  0  0
  3  4  1  0  0  0  0
  4 10  2  0  0  0  0
  4  5  1  0  0  0  0
  5  6  2  0  0  0  0
  6  7  1  0  0  0  0
  6 13  1  0  0  0  0
  7  8  2  0  0  0  0
  7 33  1  0  0  0  0
  8  9  1  0  0  0  0
  8 10  1  0  0  0  0
  9 34  1  0  0  0  0
  9 35  1  0  0  0  0
 10 11  1  0  0  0  0
 11 12  3  0  0  0  0
 13 14  1  0  0  0  0
 13 36  1  0  0  0  0
 14 15  2  0  0  0  0
 14 16  1  0  0  0  0
 16 17  1  0  0  0  0
 16 37  1  0  0  0  0
 16 38  1  0  0  0  0
 17 25  2  0  0  0  0
 17 18  1  0  0  0  0
 18 19  1  0  0  0  0
 18 21  2  0  0  0  0
 19 20  1  0  0  0  0
 20 39  1  0  0  0  0
 20 40  1  0  0  0  0
 20 41  1  0  0  0  0
 21 22  1  0  0  0  0
 21 42  1  0  0  0  0
 22 23  1  0  0  0  0
 22 24  2  0  0  0  0
 24 25  1  0  0  0  0
 24 26  1  0  0  0  0
 25 43  1  0  0  0  0
 26 27  1  0  0  0  0
 27 44  1  0  0  0  0
 27 45  1  0  0  0  0
 27 46  1  0  0  0  0
M  END
$$$$
