CAT-13i
 OpenBabel02232411143D
Structure written by MMmdl.
 46 49  0  0  1  0  0  0  0  0999 V2000
   11.7820   -1.8000    1.1430 C   0  0  0  0  0  0  0  0  0  0  0  0
   13.0810   -2.2030    0.5750 N   0  0  0  0  0  0  0  0  0  0  0  0
   14.2510   -2.3000    1.3380 C   0  0  0  0  0  0  0  0  0  0  0  0
   14.3470   -2.2710    2.6920 N   0  0  0  0  0  0  0  0  0  0  0  0
   15.3440   -2.5210    0.5030 N   0  3  0  0  0  0  0  0  0  0  0  0
   14.8770   -2.8720   -0.8880 C   0  0  2  0  0  0  0  0  0  0  0  0
   15.1630   -4.3430   -1.2030 C   0  0  0  0  0  0  0  0  0  0  0  0
   14.6300   -5.4590   -0.3210 C   0  0  0  0  0  0  0  0  0  0  0  0
   13.7430   -5.4040    0.9160 C   0  0  0  0  0  0  0  0  0  0  0  0
   13.1840   -5.9400   -0.3820 C   0  0  0  0  0  0  0  0  0  0  0  0
   15.4530   -1.8480   -1.8640 C   0  0  0  0  0  0  0  0  0  0  0  0
   16.1650   -2.2260   -3.0070 C   0  0  0  0  0  0  0  0  0  0  0  0
   16.6180   -1.2430   -3.8960 C   0  0  0  0  0  0  0  0  0  0  0  0
   16.3720    0.1080   -3.6560 C   0  0  0  0  0  0  0  0  0  0  0  0
   15.6810    0.5020   -2.4960 C   0  0  0  0  0  0  0  0  0  0  0  0
   15.4340    1.9340   -2.2120 C   0  0  0  0  0  0  0  0  0  0  0  0
   15.6450    2.4390   -0.9190 C   0  0  0  0  0  0  0  0  0  0  0  0
   15.3540    3.7720   -0.6180 C   0  0  0  0  0  0  0  0  0  0  0  0
   14.8670    4.6270   -1.6090 C   0  0  0  0  0  0  0  0  0  0  0  0
   14.7080    4.1260   -2.9050 C   0  0  0  0  0  0  0  0  0  0  0  0
   14.1600    5.1880   -4.1410 Cl  0  0  0  0  0  0  0  0  0  0  0  0
   14.9750    2.7930   -3.2250 C   0  0  0  0  0  0  0  0  0  0  0  0
   15.2240   -0.4840   -1.6100 C   0  0  0  0  0  0  0  0  0  0  0  0
   13.3400   -2.6060   -0.8160 C   0  0  0  0  0  0  0  0  0  0  0  0
   12.4810   -2.6450   -1.6380 O   0  0  0  0  0  0  0  0  0  0  0  0
   11.6440   -2.2470    2.1640 H   0  0  0  0  0  0  0  0  0  0  0  0
   11.7550   -0.6800    1.2140 H   0  0  0  0  0  0  0  0  0  0  0  0
   10.9530   -2.1620    0.4780 H   0  0  0  0  0  0  0  0  0  0  0  0
   13.6100   -1.8620    3.3120 H   0  0  0  0  0  0  0  0  0  0  0  0
   16.2250   -2.9380    0.9030 H   0  0  0  0  0  0  0  0  0  0  0  0
   16.2850   -4.4510   -1.2220 H   0  0  0  0  0  0  0  0  0  0  0  0
   14.7680   -4.5510   -2.2370 H   0  0  0  0  0  0  0  0  0  0  0  0
   15.3970   -6.2560   -0.2800 H   0  0  0  0  0  0  0  0  0  0  0  0
   13.9740   -6.1190    1.7220 H   0  0  0  0  0  0  0  0  0  0  0  0
   13.3460   -4.4840    1.3320 H   0  0  0  0  0  0  0  0  0  0  0  0
   12.4500   -5.3420   -0.9310 H   0  0  0  0  0  0  0  0  0  0  0  0
   12.9970   -7.0210   -0.4640 H   0  0  0  0  0  0  0  0  0  0  0  0
   16.3760   -3.2740   -3.2220 H   0  0  0  0  0  0  0  0  0  0  0  0
   17.1780   -1.5350   -4.7880 H   0  0  0  0  0  0  0  0  0  0  0  0
   16.7260    0.8560   -4.3730 H   0  0  0  0  0  0  0  0  0  0  0  0
   16.0260    1.7810   -0.1370 H   0  0  0  0  0  0  0  0  0  0  0  0
   15.5000    4.1360    0.4040 H   0  0  0  0  0  0  0  0  0  0  0  0
   14.6000    5.6590   -1.3670 H   0  0  0  0  0  0  0  0  0  0  0  0
   14.8190    2.4190   -4.2420 H   0  0  0  0  0  0  0  0  0  0  0  0
   14.6900   -0.1870   -0.7070 H   0  0  0  0  0  0  0  0  0  0  0  0
   15.3000   -2.3030    3.1440 H   0  0  0  0  0  0  0  0  0  0  0  0
  1  2  1  0  0  0  0
  1 26  1  0  0  0  0
  1 27  1  0  0  0  0
  1 28  1  0  0  0  0
  2  3  1  0  0  0  0
  2 24  1  0  0  0  0
  3  4  1  0  0  0  0
  3  5  2  0  0  0  0
  4 29  1  0  0  0  0
  4 46  1  0  0  0  0
  5  6  1  0  0  0  0
  5 30  1  0  0  0  0
  6  7  1  6  0  0  0
  6 11  1  0  0  0  0
  6 24  1  0  0  0  0
  7  8  1  0  0  0  0
  7 31  1  0  0  0  0
  7 32  1  0  0  0  0
  8  9  1  0  0  0  0
  8 10  1  0  0  0  0
  8 33  1  0  0  0  0
  9 10  1  0  0  0  0
  9 34  1  0  0  0  0
  9 35  1  0  0  0  0
 10 36  1  0  0  0  0
 10 37  1  0  0  0  0
 11 12  2  0  0  0  0
 11 23  1  0  0  0  0
 12 13  1  0  0  0  0
 12 38  1  0  0  0  0
 13 14  2  0  0  0  0
 13 39  1  0  0  0  0
 14 15  1  0  0  0  0
 14 40  1  0  0  0  0
 15 16  1  0  0  0  0
 15 23  2  0  0  0  0
 16 17  2  0  0  0  0
 16 22  1  0  0  0  0
 17 18  1  0  0  0  0
 17 41  1  0  0  0  0
 18 19  2  0  0  0  0
 18 42  1  0  0  0  0
 19 20  1  0  0  0  0
 19 43  1  0  0  0  0
 20 21  1  0  0  0  0
 20 22  2  0  0  0  0
 22 44  1  0  0  0  0
 23 45  1  0  0  0  0
 24 25  2  0  0  0  0
M  CHG  1   5   1
M  END
$$$$
