42
 OpenBabel02232411163D
Structure written by MMmdl.
 44 47  0  0  0  0  0  0  0  0999 V2000
    3.6950  -49.9370    5.9170 O   0  0  0  0  0  0  0  0  0  0  0  0
    2.9590  -49.0920    6.4660 C   0  0  0  0  0  0  0  0  0  0  0  0
    3.3220  -48.0800    7.0790 O   0  5  0  0  0  0  0  0  0  0  0  0
    1.4510  -49.4000    6.3710 C   0  0  0  0  0  0  0  0  0  0  0  0
   -0.3920  -50.7530    6.5300 C   0  0  0  0  0  0  0  0  0  0  0  0
   -1.3010  -51.8010    6.7540 C   0  0  0  0  0  0  0  0  0  0  0  0
   -2.6350  -51.5650    6.4540 C   0  0  0  0  0  0  0  0  0  0  0  0
   -3.0640  -50.3180    5.9400 C   0  0  0  0  0  0  0  0  0  0  0  0
   -2.1710  -49.2780    5.7210 C   0  0  0  0  0  0  0  0  0  0  0  0
   -0.8110  -49.4730    6.0170 C   0  0  0  0  0  0  0  0  0  0  0  0
    0.3700  -48.6390    5.9390 C   0  0  0  0  0  0  0  0  0  0  0  0
    0.3400  -47.2280    5.4730 C   0  0  0  0  0  0  0  0  0  0  0  0
    0.3070  -46.2100    6.6270 C   0  0  0  0  0  0  0  0  0  0  0  0
   -0.8590  -46.3830    7.5920 C   0  0  0  0  0  0  0  0  0  0  0  0
   -2.0450  -45.8390    6.8950 O   0  0  0  0  0  0  0  0  0  0  0  0
   -3.2270  -45.8480    7.5740 C   0  0  0  0  0  0  0  0  0  0  0  0
   -5.7520  -45.6270    8.7950 C   0  0  0  0  0  0  0  0  0  0  0  0
   -4.7600  -46.3850    9.3660 C   0  0  0  0  0  0  0  0  0  0  0  0
   -3.4780  -46.5000    8.7680 C   0  0  0  0  0  0  0  0  0  0  0  0
   -0.9780  -52.7640    7.1500 H   0  0  0  0  0  0  0  0  0  0  0  0
   -3.3760  -52.3490    6.6170 H   0  0  0  0  0  0  0  0  0  0  0  0
   -4.1230  -50.1820    5.7170 H   0  0  0  0  0  0  0  0  0  0  0  0
   -2.5270  -48.3240    5.3310 H   0  0  0  0  0  0  0  0  0  0  0  0
   -0.5790  -47.0780    4.8480 H   0  0  0  0  0  0  0  0  0  0  0  0
    1.2350  -47.0040    4.8430 H   0  0  0  0  0  0  0  0  0  0  0  0
    0.2620  -45.1810    6.2010 H   0  0  0  0  0  0  0  0  0  0  0  0
    1.2460  -46.3210    7.2280 H   0  0  0  0  0  0  0  0  0  0  0  0
   -0.7320  -45.7530    8.4980 H   0  0  0  0  0  0  0  0  0  0  0  0
   -1.0760  -47.4490    7.8130 H   0  0  0  0  0  0  0  0  0  0  0  0
   -2.7430  -47.1150    9.2740 H   0  0  0  0  0  0  0  0  0  0  0  0
   -5.5270  -44.9740    7.5440 C   0  0  0  0  0  0  0  0  0  0  0  0
   -4.2610  -45.0840    6.9110 C   0  0  0  0  0  0  0  0  0  0  0  0
   -4.0550  -44.4780    5.6390 C   0  0  0  0  0  0  0  0  0  0  0  0
   -5.0650  -43.7720    5.0290 C   0  0  0  0  0  0  0  0  0  0  0  0
   -6.3340  -43.6620    5.6580 C   0  0  0  0  0  0  0  0  0  0  0  0
   -6.5630  -44.2440    6.8810 C   0  0  0  0  0  0  0  0  0  0  0  0
   -3.0910  -44.6060    5.1460 H   0  0  0  0  0  0  0  0  0  0  0  0
   -4.9100  -43.2990    4.0620 H   0  0  0  0  0  0  0  0  0  0  0  0
   -7.1230  -43.1120    5.1500 H   0  0  0  0  0  0  0  0  0  0  0  0
   -7.5400  -44.1690    7.3580 H   0  0  0  0  0  0  0  0  0  0  0  0
   -4.9490  -46.9210   10.2990 H   0  0  0  0  0  0  0  0  0  0  0  0
   -6.7270  -45.5300    9.2720 H   0  0  0  0  0  0  0  0  0  0  0  0
    0.9940  -50.6810    6.7410 N   0  0  0  0  0  0  0  0  0  0  0  0
    1.5490  -51.4600    7.0760 H   0  0  0  0  0  0  0  0  0  0  0  0
  1  2  2  0  0  0  0
  2  3  1  0  0  0  0
  2  4  1  0  0  0  0
  4 11  2  0  0  0  0
  4 43  1  0  0  0  0
  5  6  2  0  0  0  0
  5 10  1  0  0  0  0
  5 43  1  0  0  0  0
  6  7  1  0  0  0  0
  6 20  1  0  0  0  0
  7  8  2  0  0  0  0
  7 21  1  0  0  0  0
  8  9  1  0  0  0  0
  8 22  1  0  0  0  0
  9 10  2  0  0  0  0
  9 23  1  0  0  0  0
 10 11  1  0  0  0  0
 11 12  1  0  0  0  0
 12 24  1  0  0  0  0
 12 25  1  0  0  0  0
 12 13  1  0  0  0  0
 13 14  1  0  0  0  0
 13 26  1  0  0  0  0
 13 27  1  0  0  0  0
 14 15  1  0  0  0  0
 14 28  1  0  0  0  0
 14 29  1  0  0  0  0
 15 16  1  0  0  0  0
 16 19  2  0  0  0  0
 16 32  1  0  0  0  0
 17 18  2  0  0  0  0
 17 31  1  0  0  0  0
 17 42  1  0  0  0  0
 18 19  1  0  0  0  0
 18 41  1  0  0  0  0
 19 30  1  0  0  0  0
 31 32  2  0  0  0  0
 31 36  1  0  0  0  0
 32 33  1  0  0  0  0
 33 34  2  0  0  0  0
 33 37  1  0  0  0  0
 34 35  1  0  0  0  0
 34 38  1  0  0  0  0
 35 36  2  0  0  0  0
 35 39  1  0  0  0  0
 36 40  1  0  0  0  0
 43 44  1  0  0  0  0
M  CHG  1   3  -1
M  END
$$$$
