18638-1
 OpenBabel02232411163D
Structure written by MMmdl.
 52 53  0  0  0  0  0  0  0  0999 V2000
   23.3120   10.6150   29.0220 C   0  0  0  0  0  0  0  0  0  0  0  0
   23.6150   10.9000   30.4780 C   0  0  0  0  0  0  0  0  0  0  0  0
   22.3630   11.0300   31.2530 O   0  0  0  0  0  0  0  0  0  0  0  0
   21.6980    9.9140   31.6260 C   0  0  0  0  0  0  0  0  0  0  0  0
   22.1680    8.7010   31.2480 N   0  0  0  0  0  0  0  0  0  0  0  0
   21.4140    7.5910   31.5850 C   0  0  0  0  0  0  0  0  0  0  0  0
   20.2410    7.6760   32.3290 C   0  0  0  0  0  0  0  0  0  0  0  0
   19.7650    8.9500   32.7410 C   0  0  0  0  0  0  0  0  0  0  0  0
   18.5930    9.0330   33.4510 N   0  0  0  0  0  0  0  0  0  0  0  0
   20.5080   10.1210   32.3860 C   0  0  0  0  0  0  0  0  0  0  0  0
   20.1180   11.4360   32.7170 C   0  0  0  0  0  0  0  0  0  0  0  0
   19.8450   12.5380   32.9550 N   0  0  0  0  0  0  0  0  0  0  0  0
   21.9620    6.3940   31.0610 N   0  0  0  0  0  0  0  0  0  0  0  0
   21.2590    5.1780   30.9260 C   0  0  0  0  0  0  0  0  0  0  0  0
   20.1650    5.0000   31.4190 O   0  0  0  0  0  0  0  0  0  0  0  0
   21.9440    4.1540   30.0370 C   0  0  0  0  0  0  0  0  0  0  0  0
   23.3150    3.7230   30.4660 C   0  0  0  0  0  0  0  0  0  0  0  0
   24.4660    4.4330   30.0190 C   0  0  0  0  0  0  0  0  0  0  0  0
   24.1460    5.5690   29.2820 O   0  0  0  0  0  0  0  0  0  0  0  0
   25.1840    6.5750   29.1260 C   0  0  0  0  0  0  0  0  0  0  0  0
   25.7530    3.9610   30.2590 C   0  0  0  0  0  0  0  0  0  0  0  0
   25.9510    2.7850   31.0040 C   0  0  0  0  0  0  0  0  0  0  0  0
   27.5910    2.1780   31.1610 S   0  0  0  0  0  0  0  0  0  0  0  0
   28.5630    3.2750   30.9220 O   0  0  0  0  0  0  0  0  0  0  0  0
   27.7830    1.5970   32.5100 O   0  0  0  0  0  0  0  0  0  0  0  0
   27.7080    0.9700   29.9220 C   0  0  0  0  0  0  0  0  0  0  0  0
   24.8210    2.1290   31.5150 C   0  0  0  0  0  0  0  0  0  0  0  0
   23.5090    2.5820   31.2300 C   0  0  0  0  0  0  0  0  0  0  0  0
   25.0820    1.0540   32.3290 O   0  0  0  0  0  0  0  0  0  0  0  0
   24.0070    0.1030   32.5730 C   0  0  0  0  0  0  0  0  0  0  0  0
   22.9120    9.5830   28.8860 H   0  0  0  0  0  0  0  0  0  0  0  0
   22.5730   11.3410   28.6120 H   0  0  0  0  0  0  0  0  0  0  0  0
   24.2540   10.7050   28.4260 H   0  0  0  0  0  0  0  0  0  0  0  0
   24.0260   11.9270   30.6310 H   0  0  0  0  0  0  0  0  0  0  0  0
   24.2590   10.1160   30.9370 H   0  0  0  0  0  0  0  0  0  0  0  0
   19.6650    6.7830   32.5820 H   0  0  0  0  0  0  0  0  0  0  0  0
   18.0770    8.1770   33.7310 H   0  0  0  0  0  0  0  0  0  0  0  0
   18.2050    9.9330   33.7340 H   0  0  0  0  0  0  0  0  0  0  0  0
   22.8830    6.4880   30.5710 H   0  0  0  0  0  0  0  0  0  0  0  0
   21.2850    3.2470   29.9740 H   0  0  0  0  0  0  0  0  0  0  0  0
   22.0170    4.6120   29.0090 H   0  0  0  0  0  0  0  0  0  0  0  0
   24.5950    7.4450   28.7560 H   0  0  0  0  0  0  0  0  0  0  0  0
   25.6630    6.8000   30.1030 H   0  0  0  0  0  0  0  0  0  0  0  0
   25.9170    6.2240   28.3690 H   0  0  0  0  0  0  0  0  0  0  0  0
   26.6130    4.5020   29.8430 H   0  0  0  0  0  0  0  0  0  0  0  0
   27.5870    1.4090   28.8950 H   0  0  0  0  0  0  0  0  0  0  0  0
   28.6960    0.4410   29.9240 H   0  0  0  0  0  0  0  0  0  0  0  0
   26.9190    0.1790   30.0150 H   0  0  0  0  0  0  0  0  0  0  0  0
   22.6470    2.0220   31.5960 H   0  0  0  0  0  0  0  0  0  0  0  0
   23.6200   -0.2790   31.6040 H   0  0  0  0  0  0  0  0  0  0  0  0
   23.2150    0.5640   33.2000 H   0  0  0  0  0  0  0  0  0  0  0  0
   24.5420   -0.7020   33.1320 H   0  0  0  0  0  0  0  0  0  0  0  0
  1  2  1  0  0  0  0
  1 31  1  0  0  0  0
  1 32  1  0  0  0  0
  1 33  1  0  0  0  0
  2  3  1  0  0  0  0
  2 34  1  0  0  0  0
  2 35  1  0  0  0  0
  3  4  1  0  0  0  0
  4 10  2  0  0  0  0
  4  5  1  0  0  0  0
  5  6  2  0  0  0  0
  6  7  1  0  0  0  0
  6 13  1  0  0  0  0
  7  8  2  0  0  0  0
  7 36  1  0  0  0  0
  8  9  1  0  0  0  0
  8 10  1  0  0  0  0
  9 37  1  0  0  0  0
  9 38  1  0  0  0  0
 10 11  1  0  0  0  0
 11 12  3  0  0  0  0
 13 14  1  0  0  0  0
 13 39  1  0  0  0  0
 14 15  2  0  0  0  0
 14 16  1  0  0  0  0
 16 17  1  0  0  0  0
 16 40  1  0  0  0  0
 16 41  1  0  0  0  0
 17 28  2  0  0  0  0
 17 18  1  0  0  0  0
 18 19  1  0  0  0  0
 18 21  2  0  0  0  0
 19 20  1  0  0  0  0
 20 42  1  0  0  0  0
 20 43  1  0  0  0  0
 20 44  1  0  0  0  0
 21 22  1  0  0  0  0
 21 45  1  0  0  0  0
 22 23  1  0  0  0  0
 22 27  2  0  0  0  0
 23 24  2  0  0  0  0
 23 25  2  0  0  0  0
 23 26  1  0  0  0  0
 26 46  1  0  0  0  0
 26 47  1  0  0  0  0
 26 48  1  0  0  0  0
 27 28  1  0  0  0  0
 27 29  1  0  0  0  0
 28 49  1  0  0  0  0
 29 30  1  0  0  0  0
 30 50  1  0  0  0  0
 30 51  1  0  0  0  0
 30 52  1  0  0  0  0
M  END
$$$$
