23486
 OpenBabel02232411173D
Structure written by MMmdl.
 60 63  0  0  0  0  0  0  0  0999 V2000
   42.3990   18.0030   12.6510 O   0  0  0  0  0  0  0  0  0  0  0  0
   41.2540   17.6920   12.9960 C   0  0  0  0  0  0  0  0  0  0  0  0
   40.2080   18.3330   12.7530 O   0  5  0  0  0  0  0  0  0  0  0  0
   41.0430   16.3710   13.7970 C   0  0  0  0  0  0  0  0  0  0  0  0
   42.3870   15.7950   13.7580 O   0  0  0  0  0  0  0  0  0  0  0  0
   42.6260   14.8680   14.7230 C   0  0  0  0  0  0  0  0  0  0  0  0
   42.0460   13.5390   14.6640 C   0  0  0  0  0  0  0  0  0  0  0  0
   40.9620   13.1850   13.3910 Cl  0  0  0  0  0  0  0  0  0  0  0  0
   42.4620   12.6780   15.6450 C   0  0  0  0  0  0  0  0  0  0  0  0
   42.0610   11.3250   15.9670 C   0  0  0  0  0  0  0  0  0  0  0  0
   42.8100   10.5070   16.8510 C   0  0  0  0  0  0  0  0  0  0  0  0
   42.3530    9.2400   17.1900 C   0  0  0  0  0  0  0  0  0  0  0  0
   41.1590    8.7140   16.6670 C   0  0  0  0  0  0  0  0  0  0  0  0
   40.4180    9.5030   15.7810 C   0  0  0  0  0  0  0  0  0  0  0  0
   39.1310    9.1630   15.2560 N   0  0  0  0  0  0  0  0  0  0  0  0
   38.5320    7.8210   15.4270 C   0  0  0  0  0  0  0  0  0  0  0  0
   37.0190    7.9190   15.0990 C   0  0  0  0  0  0  0  0  0  0  0  0
   36.7420    8.0820   13.5950 C   0  0  0  0  0  0  0  0  0  0  0  0
   37.3770    7.0190   12.7690 N   0  0  0  0  0  0  0  0  0  0  0  0
   36.4060    5.7120   12.2800 S   0  0  0  0  0  0  0  0  0  0  0  0
   37.1350    4.9590   11.2670 O   0  0  0  0  0  0  0  0  0  0  0  0
   35.1900    6.3390   11.7300 O   0  0  0  0  0  0  0  0  0  0  0  0
   36.0190    4.7020   13.6640 C   0  0  0  0  0  0  0  0  0  0  0  0
   35.7390    3.2990   13.2350 C   0  0  0  0  0  0  0  0  0  0  0  0
   34.4250    2.8880   12.9580 C   0  0  0  0  0  0  0  0  0  0  0  0
   34.1740    1.5760   12.5450 C   0  0  0  0  0  0  0  0  0  0  0  0
   35.2250    0.6660   12.4030 C   0  0  0  0  0  0  0  0  0  0  0  0
   36.5340    1.0700   12.6870 C   0  0  0  0  0  0  0  0  0  0  0  0
   36.7930    2.3770   13.1060 C   0  0  0  0  0  0  0  0  0  0  0  0
   38.8220    6.8190   13.0650 C   0  0  0  0  0  0  0  0  0  0  0  0
   39.1600    6.7010   14.5590 C   0  0  0  0  0  0  0  0  0  0  0  0
   40.8810   10.7930   15.4320 C   0  0  0  0  0  0  0  0  0  0  0  0
   43.6340   13.5350   16.6350 S   0  0  0  0  0  0  0  0  0  0  0  0
   43.5230   15.0400   15.7410 C   0  0  0  0  0  0  0  0  0  0  0  0
   44.3330   16.2710   16.1700 C   0  0  0  0  0  0  0  0  0  0  0  0
   44.9630   16.1390   17.2440 O   0  0  0  0  0  0  0  0  0  0  0  0
   44.3400   17.2630   15.4430 O   0  5  0  0  0  0  0  0  0  0  0  0
   40.3390   15.6870   13.2790 H   0  0  0  0  0  0  0  0  0  0  0  0
   40.7100   16.5520   14.8390 H   0  0  0  0  0  0  0  0  0  0  0  0
   43.7540   10.8500   17.2790 H   0  0  0  0  0  0  0  0  0  0  0  0
   42.9230    8.6170   17.8840 H   0  0  0  0  0  0  0  0  0  0  0  0
   40.8370    7.7170   16.9520 H   0  0  0  0  0  0  0  0  0  0  0  0
   38.9660    9.5310   14.3050 H   0  0  0  0  0  0  0  0  0  0  0  0
   38.6360    7.5150   16.5040 H   0  0  0  0  0  0  0  0  0  0  0  0
   36.5320    6.9900   15.4820 H   0  0  0  0  0  0  0  0  0  0  0  0
   36.5760    8.7800   15.6530 H   0  0  0  0  0  0  0  0  0  0  0  0
   35.6350    8.0800   13.4220 H   0  0  0  0  0  0  0  0  0  0  0  0
   37.1600    9.0650   13.2380 H   0  0  0  0  0  0  0  0  0  0  0  0
   36.8610    4.7050   14.4200 H   0  0  0  0  0  0  0  0  0  0  0  0
   35.1440    5.1210   14.2370 H   0  0  0  0  0  0  0  0  0  0  0  0
   33.5870    3.5790   13.0710 H   0  0  0  0  0  0  0  0  0  0  0  0
   33.1480    1.2580   12.3380 H   0  0  0  0  0  0  0  0  0  0  0  0
   35.0230   -0.3580   12.0810 H   0  0  0  0  0  0  0  0  0  0  0  0
   37.3560    0.3540   12.5880 H   0  0  0  0  0  0  0  0  0  0  0  0
   37.8210    2.6720   13.3430 H   0  0  0  0  0  0  0  0  0  0  0  0
   39.1970    5.9020   12.5420 H   0  0  0  0  0  0  0  0  0  0  0  0
   39.3590    7.7180   12.6590 H   0  0  0  0  0  0  0  0  0  0  0  0
   40.2720    6.7200   14.6760 H   0  0  0  0  0  0  0  0  0  0  0  0
   38.8090    5.7220   14.9600 H   0  0  0  0  0  0  0  0  0  0  0  0
   40.2620   11.3660   14.7480 H   0  0  0  0  0  0  0  0  0  0  0  0
  1  2  2  0  0  0  0
  2  3  1  0  0  0  0
  2  4  1  0  0  0  0
  4  5  1  0  0  0  0
  4 38  1  0  0  0  0
  4 39  1  0  0  0  0
  5  6  1  0  0  0  0
  6 34  2  0  0  0  0
  6  7  1  0  0  0  0
  7  8  1  0  0  0  0
  7  9  2  0  0  0  0
  9 10  1  0  0  0  0
  9 33  1  0  0  0  0
 10 32  2  0  0  0  0
 10 11  1  0  0  0  0
 11 12  2  0  0  0  0
 11 40  1  0  0  0  0
 12 13  1  0  0  0  0
 12 41  1  0  0  0  0
 13 14  2  0  0  0  0
 13 42  1  0  0  0  0
 14 15  1  0  0  0  0
 14 32  1  0  0  0  0
 15 16  1  0  0  0  0
 15 43  1  0  0  0  0
 16 31  1  0  0  0  0
 16 17  1  0  0  0  0
 16 44  1  0  0  0  0
 17 18  1  0  0  0  0
 17 45  1  0  0  0  0
 17 46  1  0  0  0  0
 18 19  1  0  0  0  0
 18 47  1  0  0  0  0
 18 48  1  0  0  0  0
 19 20  1  0  0  0  0
 19 30  1  0  0  0  0
 20 21  2  0  0  0  0
 20 22  2  0  0  0  0
 20 23  1  0  0  0  0
 23 24  1  0  0  0  0
 23 49  1  0  0  0  0
 23 50  1  0  0  0  0
 24 29  2  0  0  0  0
 24 25  1  0  0  0  0
 25 26  2  0  0  0  0
 25 51  1  0  0  0  0
 26 27  1  0  0  0  0
 26 52  1  0  0  0  0
 27 28  2  0  0  0  0
 27 53  1  0  0  0  0
 28 29  1  0  0  0  0
 28 54  1  0  0  0  0
 29 55  1  0  0  0  0
 30 31  1  0  0  0  0
 30 56  1  0  0  0  0
 30 57  1  0  0  0  0
 31 58  1  0  0  0  0
 31 59  1  0  0  0  0
 32 60  1  0  0  0  0
 33 34  1  0  0  0  0
 34 35  1  0  0  0  0
 35 36  2  0  0  0  0
 35 37  1  0  0  0  0
M  CHG  2   3  -1  37  -1
M  END
$$$$
