p38a_2l
 OpenBabel02232411163D
Structure written by MMmdl.
 49 52  0  0  0  0  0  0  0  0999 V2000
   36.3540   36.0090   15.8400 C   0  0  0  0  0  0  0  0  0  0  0  0
   34.5410   35.0480   21.4030 C   0  0  0  0  0  0  0  0  0  0  0  0
   35.6760   35.5470   16.9630 C   0  0  0  0  0  0  0  0  0  0  0  0
   34.1320   39.1720   23.8980 C   0  0  0  0  0  0  0  0  0  0  0  0
   34.7660   37.9090   21.5280 C   0  0  0  0  0  0  0  0  0  0  0  0
   35.1890   37.2230   20.3370 C   0  0  0  0  0  0  0  0  0  0  0  0
   37.6450   36.5100   16.0510 C   0  0  0  0  0  0  0  0  0  0  0  0
   38.2710   36.5230   17.3010 C   0  0  0  0  0  0  0  0  0  0  0  0
   37.5550   36.0860   18.4210 C   0  0  0  0  0  0  0  0  0  0  0  0
   34.3580   37.1700   22.6790 C   0  0  0  0  0  0  0  0  0  0  0  0
   34.7550   39.3250   21.6370 C   0  0  0  0  0  0  0  0  0  0  0  0
   35.1130   35.8740   20.3040 C   0  0  0  0  0  0  0  0  0  0  0  0
   36.2550   35.6010   18.2480 C   0  0  0  0  0  0  0  0  0  0  0  0
   34.4610   35.0270   16.8510 F   0  0  0  0  0  0  0  0  0  0  0  0
   35.4980   35.0200   19.2720 O   0  0  0  0  0  0  0  0  0  0  0  0
   34.4460   39.9660   22.7720 N   0  0  0  0  0  0  0  0  0  0  0  0
   34.3040   33.8620   21.3310 O   0  0  0  0  0  0  0  0  0  0  0  0
   34.2360   35.7720   22.6100 N   0  0  0  0  0  0  0  0  0  0  0  0
   34.0440   37.7980   23.8610 N   0  0  0  0  0  0  0  0  0  0  0  0
   33.9590   39.8610   25.0780 N   0  0  0  0  0  0  0  0  0  0  0  0
   35.8960   36.0070   14.8480 H   0  0  0  0  0  0  0  0  0  0  0  0
   35.5740   37.8220   19.5080 H   0  0  0  0  0  0  0  0  0  0  0  0
   39.2920   36.8980   17.4110 H   0  0  0  0  0  0  0  0  0  0  0  0
   38.0090   36.1500   19.4130 H   0  0  0  0  0  0  0  0  0  0  0  0
   34.9980   39.9450   20.7580 H   0  0  0  0  0  0  0  0  0  0  0  0
   33.9290   40.9010   25.0370 H   0  0  0  0  0  0  0  0  0  0  0  0
   38.2920   37.0300   15.0100 F   0  0  0  0  0  0  0  0  0  0  0  0
   33.6950   37.7310   28.2820 C   0  0  0  0  0  0  0  0  0  0  0  0
   34.2970   38.2090   26.9540 C   0  0  0  0  0  0  0  0  0  0  0  0
   33.4140   39.3220   26.3610 C   0  0  0  0  0  0  0  0  0  0  0  0
   31.9540   38.8400   26.2280 C   0  0  0  0  0  0  0  0  0  0  0  0
   31.4590   38.3420   27.5920 C   0  0  0  0  0  0  0  0  0  0  0  0
   32.3190   37.3130   28.1300 O   0  0  0  0  0  0  0  0  0  0  0  0
   33.7450   38.5320   29.0560 H   0  0  0  0  0  0  0  0  0  0  0  0
   34.1900   36.7950   28.6320 H   0  0  0  0  0  0  0  0  0  0  0  0
   34.3640   37.3450   26.2470 H   0  0  0  0  0  0  0  0  0  0  0  0
   35.3290   38.5970   27.1290 H   0  0  0  0  0  0  0  0  0  0  0  0
   33.4400   40.2130   27.0600 H   0  0  0  0  0  0  0  0  0  0  0  0
   31.3080   39.6800   25.8780 H   0  0  0  0  0  0  0  0  0  0  0  0
   31.8910   38.0110   25.4830 H   0  0  0  0  0  0  0  0  0  0  0  0
   31.4000   39.1770   28.3260 H   0  0  0  0  0  0  0  0  0  0  0  0
   30.4840   37.8100   27.5000 H   0  0  0  0  0  0  0  0  0  0  0  0
   33.9390   34.9810   23.8550 C   0  0  0  0  0  0  0  0  0  0  0  0
   33.2780   35.5950   24.5280 H   0  0  0  0  0  0  0  0  0  0  0  0
   33.3830   34.0520   23.5540 H   0  0  0  0  0  0  0  0  0  0  0  0
   35.2280   34.6130   24.5890 C   0  0  0  0  0  0  0  0  0  0  0  0
   35.8140   33.8530   24.0300 H   0  0  0  0  0  0  0  0  0  0  0  0
   35.8580   35.5140   24.7630 H   0  0  0  0  0  0  0  0  0  0  0  0
   34.9660   34.1860   25.5890 H   0  0  0  0  0  0  0  0  0  0  0  0
  1  3  2  0  0  0  0
  1  7  1  0  0  0  0
  1 21  1  0  0  0  0
  2 12  1  0  0  0  0
  2 17  2  0  0  0  0
  2 18  1  0  0  0  0
  3 13  1  0  0  0  0
  3 14  1  0  0  0  0
  4 16  2  0  0  0  0
  4 19  1  0  0  0  0
  4 20  1  0  0  0  0
  5  6  1  0  0  0  0
  5 10  1  0  0  0  0
  5 11  2  0  0  0  0
  6 12  2  0  0  0  0
  6 22  1  0  0  0  0
  7  8  2  0  0  0  0
  7 27  1  0  0  0  0
  8  9  1  0  0  0  0
  8 23  1  0  0  0  0
  9 13  2  0  0  0  0
  9 24  1  0  0  0  0
 10 18  1  0  0  0  0
 10 19  2  0  0  0  0
 11 16  1  0  0  0  0
 11 25  1  0  0  0  0
 12 15  1  0  0  0  0
 13 15  1  0  0  0  0
 18 43  1  0  0  0  0
 20 26  1  0  0  0  0
 20 30  1  0  0  0  0
 28 29  1  0  0  0  0
 28 33  1  0  0  0  0
 28 34  1  0  0  0  0
 28 35  1  0  0  0  0
 29 30  1  0  0  0  0
 29 36  1  0  0  0  0
 29 37  1  0  0  0  0
 30 31  1  0  0  0  0
 30 38  1  0  0  0  0
 31 32  1  0  0  0  0
 31 39  1  0  0  0  0
 31 40  1  0  0  0  0
 32 33  1  0  0  0  0
 32 41  1  0  0  0  0
 32 42  1  0  0  0  0
 43 44  1  0  0  0  0
 43 45  1  0  0  0  0
 43 46  1  0  0  0  0
 46 47  1  0  0  0  0
 46 48  1  0  0  0  0
 46 49  1  0  0  0  0
M  END
$$$$
