p38a_2u
 OpenBabel02232411163D
Structure written by MMmdl.
 64 68  0  0  0  0  0  0  0  0999 V2000
   38.2740   36.5330   17.1750 C   0  0  0  0  0  0  0  0  0  0  0  0
   34.5460   35.0840   21.2880 C   0  0  0  0  0  0  0  0  0  0  0  0
   37.5070   36.0810   18.2460 C   0  0  0  0  0  0  0  0  0  0  0  0
   33.9730   39.1900   23.7840 C   0  0  0  0  0  0  0  0  0  0  0  0
   34.6290   37.9630   21.4040 C   0  0  0  0  0  0  0  0  0  0  0  0
   35.0430   37.2970   20.2000 C   0  0  0  0  0  0  0  0  0  0  0  0
   37.6090   36.6770   15.9490 C   0  0  0  0  0  0  0  0  0  0  0  0
   36.2590   36.3690   15.7640 C   0  0  0  0  0  0  0  0  0  0  0  0
   35.5140   35.9030   16.8530 C   0  0  0  0  0  0  0  0  0  0  0  0
   34.2310   37.1990   22.5410 C   0  0  0  0  0  0  0  0  0  0  0  0
   34.6160   39.3780   21.5390 C   0  0  0  0  0  0  0  0  0  0  0  0
   35.0390   35.9450   20.1750 C   0  0  0  0  0  0  0  0  0  0  0  0
   36.1450   35.7490   18.0900 C   0  0  0  0  0  0  0  0  0  0  0  0
   38.0560   35.9600   19.4470 F   0  0  0  0  0  0  0  0  0  0  0  0
   35.4480   35.1190   19.1300 O   0  0  0  0  0  0  0  0  0  0  0  0
   34.3070   40.0050   22.6840 N   0  0  0  0  0  0  0  0  0  0  0  0
   34.4690   33.8750   21.2270 O   0  0  0  0  0  0  0  0  0  0  0  0
   34.1460   35.7920   22.4750 N   0  0  0  0  0  0  0  0  0  0  0  0
   33.9310   37.8100   23.7310 N   0  0  0  0  0  0  0  0  0  0  0  0
   33.6140   39.8090   24.9590 N   0  0  0  0  0  0  0  0  0  0  0  0
   39.3280   36.7990   17.2930 H   0  0  0  0  0  0  0  0  0  0  0  0
   35.3590   37.9090   19.3520 H   0  0  0  0  0  0  0  0  0  0  0  0
   35.7740   36.5000   14.7940 H   0  0  0  0  0  0  0  0  0  0  0  0
   34.4490   35.6800   16.7320 H   0  0  0  0  0  0  0  0  0  0  0  0
   34.8680   40.0100   20.6720 H   0  0  0  0  0  0  0  0  0  0  0  0
   33.7470   40.8320   25.0640 H   0  0  0  0  0  0  0  0  0  0  0  0
   38.2920   37.1680   14.9190 F   0  0  0  0  0  0  0  0  0  0  0  0
   32.2640   39.0940   28.4620 C   0  0  0  0  0  0  0  0  0  0  0  0
   32.3980   39.7970   27.1050 C   0  0  0  0  0  0  0  0  0  0  0  0
   33.4220   39.0440   26.2300 C   0  0  0  0  0  0  0  0  0  0  0  0
   34.7630   38.8930   26.9800 C   0  0  0  0  0  0  0  0  0  0  0  0
   34.5200   38.2370   28.3450 C   0  0  0  0  0  0  0  0  0  0  0  0
   33.5420   38.9630   29.1250 O   0  0  0  0  0  0  0  0  0  0  0  0
   31.8100   38.0830   28.3380 H   0  0  0  0  0  0  0  0  0  0  0  0
   31.6850   39.7160   29.1820 H   0  0  0  0  0  0  0  0  0  0  0  0
   32.7290   40.8510   27.2600 H   0  0  0  0  0  0  0  0  0  0  0  0
   31.4080   39.8130   26.5900 H   0  0  0  0  0  0  0  0  0  0  0  0
   33.0100   38.0250   25.9800 H   0  0  0  0  0  0  0  0  0  0  0  0
   35.4560   38.2500   26.3850 H   0  0  0  0  0  0  0  0  0  0  0  0
   35.2360   39.8940   27.1130 H   0  0  0  0  0  0  0  0  0  0  0  0
   34.1730   37.1850   28.2200 H   0  0  0  0  0  0  0  0  0  0  0  0
   35.4270   38.2990   28.9890 H   0  0  0  0  0  0  0  0  0  0  0  0
   34.1690   33.5510   25.6330 C   0  0  0  0  0  0  0  0  0  0  0  0
   34.6990   34.1560   24.3080 C   0  0  0  0  0  0  0  0  0  0  0  0
   33.6040   35.0320   23.6700 C   0  0  0  0  0  0  0  0  0  0  0  0
   32.3560   34.2080   23.2810 C   0  0  0  0  0  0  0  0  0  0  0  0
   32.2170   32.9620   24.1890 C   0  0  0  0  0  0  0  0  0  0  0  0
   34.3360   34.2930   26.4600 H   0  0  0  0  0  0  0  0  0  0  0  0
   34.7400   32.6100   25.8380 H   0  0  0  0  0  0  0  0  0  0  0  0
   34.9960   33.3400   23.6110 H   0  0  0  0  0  0  0  0  0  0  0  0
   35.5960   34.7740   24.5460 H   0  0  0  0  0  0  0  0  0  0  0  0
   33.2760   35.7880   24.4450 H   0  0  0  0  0  0  0  0  0  0  0  0
   31.4530   34.8550   23.4050 H   0  0  0  0  0  0  0  0  0  0  0  0
   32.3910   33.8620   22.2240 H   0  0  0  0  0  0  0  0  0  0  0  0
   31.1370   32.6660   24.2160 H   0  0  0  0  0  0  0  0  0  0  0  0
   32.8150   32.1160   23.7580 H   0  0  0  0  0  0  0  0  0  0  0  0
   32.7010   33.2840   25.5590 N   0  0  0  0  0  0  0  0  0  0  0  0
   31.7920   32.8120   26.9220 S   0  0  0  0  0  0  0  0  0  0  0  0
   32.4450   33.3440   28.1360 O   0  0  0  0  0  0  0  0  0  0  0  0
   31.6830   31.3390   26.9910 O   0  0  0  0  0  0  0  0  0  0  0  0
   30.2390   33.5240   26.6460 C   0  0  0  0  0  0  0  0  0  0  0  0
   29.7150   33.8040   27.5990 H   0  0  0  0  0  0  0  0  0  0  0  0
   30.3070   34.4820   26.0570 H   0  0  0  0  0  0  0  0  0  0  0  0
   29.5430   32.8520   26.0840 H   0  0  0  0  0  0  0  0  0  0  0  0
  1  3  2  0  0  0  0
  1  7  1  0  0  0  0
  1 21  1  0  0  0  0
  2 12  1  0  0  0  0
  2 17  2  0  0  0  0
  2 18  1  0  0  0  0
  3 13  1  0  0  0  0
  3 14  1  0  0  0  0
  4 16  2  0  0  0  0
  4 19  1  0  0  0  0
  4 20  1  0  0  0  0
  5  6  1  0  0  0  0
  5 10  1  0  0  0  0
  5 11  2  0  0  0  0
  6 12  2  0  0  0  0
  6 22  1  0  0  0  0
  7  8  2  0  0  0  0
  7 27  1  0  0  0  0
  8  9  1  0  0  0  0
  8 23  1  0  0  0  0
  9 13  2  0  0  0  0
  9 24  1  0  0  0  0
 10 18  1  0  0  0  0
 10 19  2  0  0  0  0
 11 16  1  0  0  0  0
 11 25  1  0  0  0  0
 12 15  1  0  0  0  0
 13 15  1  0  0  0  0
 18 45  1  0  0  0  0
 20 26  1  0  0  0  0
 20 30  1  0  0  0  0
 28 29  1  0  0  0  0
 28 33  1  0  0  0  0
 28 34  1  0  0  0  0
 28 35  1  0  0  0  0
 29 30  1  0  0  0  0
 29 36  1  0  0  0  0
 29 37  1  0  0  0  0
 30 31  1  0  0  0  0
 30 38  1  0  0  0  0
 31 32  1  0  0  0  0
 31 39  1  0  0  0  0
 31 40  1  0  0  0  0
 32 33  1  0  0  0  0
 32 41  1  0  0  0  0
 32 42  1  0  0  0  0
 43 44  1  0  0  0  0
 43 48  1  0  0  0  0
 43 49  1  0  0  0  0
 43 57  1  0  0  0  0
 44 45  1  0  0  0  0
 44 50  1  0  0  0  0
 44 51  1  0  0  0  0
 45 46  1  0  0  0  0
 45 52  1  0  0  0  0
 46 47  1  0  0  0  0
 46 53  1  0  0  0  0
 46 54  1  0  0  0  0
 47 55  1  0  0  0  0
 47 56  1  0  0  0  0
 47 57  1  0  0  0  0
 57 58  1  0  0  0  0
 58 59  2  0  0  0  0
 58 60  2  0  0  0  0
 58 61  1  0  0  0  0
 61 62  1  0  0  0  0
 61 63  1  0  0  0  0
 61 64  1  0  0  0  0
M  END
$$$$
