p38a_2o
 OpenBabel02232411163D
Structure written by MMmdl.
 55 58  0  0  0  0  0  0  0  0999 V2000
   38.2380   36.4880   17.2260 C   0  0  0  0  0  0  0  0  0  0  0  0
   34.5740   35.1510   21.3710 C   0  0  0  0  0  0  0  0  0  0  0  0
   37.4560   36.0560   18.2940 C   0  0  0  0  0  0  0  0  0  0  0  0
   34.0760   39.3040   23.8060 C   0  0  0  0  0  0  0  0  0  0  0  0
   34.6170   38.0170   21.4290 C   0  0  0  0  0  0  0  0  0  0  0  0
   34.9860   37.3350   20.2200 C   0  0  0  0  0  0  0  0  0  0  0  0
   37.5870   36.6260   15.9920 C   0  0  0  0  0  0  0  0  0  0  0  0
   36.2370   36.3270   15.7970 C   0  0  0  0  0  0  0  0  0  0  0  0
   35.4750   35.8850   16.8840 C   0  0  0  0  0  0  0  0  0  0  0  0
   34.2990   37.2880   22.6120 C   0  0  0  0  0  0  0  0  0  0  0  0
   34.5730   39.4370   21.5110 C   0  0  0  0  0  0  0  0  0  0  0  0
   34.9990   35.9820   20.2190 C   0  0  0  0  0  0  0  0  0  0  0  0
   36.0900   35.7420   18.1310 C   0  0  0  0  0  0  0  0  0  0  0  0
   37.9960   35.9370   19.5000 F   0  0  0  0  0  0  0  0  0  0  0  0
   35.3680   35.1400   19.1710 O   0  0  0  0  0  0  0  0  0  0  0  0
   34.3140   40.0850   22.6500 N   0  0  0  0  0  0  0  0  0  0  0  0
   34.4830   33.9410   21.3620 O   0  0  0  0  0  0  0  0  0  0  0  0
   34.2790   35.8790   22.5810 N   0  0  0  0  0  0  0  0  0  0  0  0
   34.0220   37.9240   23.8000 N   0  0  0  0  0  0  0  0  0  0  0  0
   33.9500   40.0300   24.9650 N   0  0  0  0  0  0  0  0  0  0  0  0
   39.2950   36.7440   17.3500 H   0  0  0  0  0  0  0  0  0  0  0  0
   35.2570   37.9320   19.3470 H   0  0  0  0  0  0  0  0  0  0  0  0
   35.7630   36.4490   14.8190 H   0  0  0  0  0  0  0  0  0  0  0  0
   34.4090   35.6700   16.7540 H   0  0  0  0  0  0  0  0  0  0  0  0
   34.7510   40.0460   20.6080 H   0  0  0  0  0  0  0  0  0  0  0  0
   33.9200   41.0690   24.8830 H   0  0  0  0  0  0  0  0  0  0  0  0
   38.2850   37.1050   14.9650 F   0  0  0  0  0  0  0  0  0  0  0  0
   33.8500   38.1150   28.3050 C   0  0  0  0  0  0  0  0  0  0  0  0
   34.3850   38.4820   26.9130 C   0  0  0  0  0  0  0  0  0  0  0  0
   33.4760   39.5620   26.3010 C   0  0  0  0  0  0  0  0  0  0  0  0
   32.0090   39.0860   26.2700 C   0  0  0  0  0  0  0  0  0  0  0  0
   31.5870   38.6850   27.6910 C   0  0  0  0  0  0  0  0  0  0  0  0
   32.4700   37.6890   28.2530 O   0  0  0  0  0  0  0  0  0  0  0  0
   33.9370   38.9810   29.0040 H   0  0  0  0  0  0  0  0  0  0  0  0
   34.3650   37.2130   28.7080 H   0  0  0  0  0  0  0  0  0  0  0  0
   34.4020   37.5770   26.2600 H   0  0  0  0  0  0  0  0  0  0  0  0
   35.4280   38.8710   27.0010 H   0  0  0  0  0  0  0  0  0  0  0  0
   33.5400   40.4930   26.9450 H   0  0  0  0  0  0  0  0  0  0  0  0
   31.3520   39.9080   25.8990 H   0  0  0  0  0  0  0  0  0  0  0  0
   31.9050   38.2160   25.5800 H   0  0  0  0  0  0  0  0  0  0  0  0
   31.5760   39.5730   28.3630 H   0  0  0  0  0  0  0  0  0  0  0  0
   30.6030   38.1610   27.6870 H   0  0  0  0  0  0  0  0  0  0  0  0
   33.9350   35.0800   23.8120 C   0  0  0  0  0  0  0  0  0  0  0  0
   34.4680   34.0920   23.7130 H   0  0  0  0  0  0  0  0  0  0  0  0
   34.3320   35.6340   24.7090 H   0  0  0  0  0  0  0  0  0  0  0  0
   32.4250   34.8690   23.9390 C   0  0  0  0  0  0  0  0  0  0  0  0
   31.9420   35.8550   24.1880 H   0  0  0  0  0  0  0  0  0  0  0  0
   31.9980   34.5750   22.9410 H   0  0  0  0  0  0  0  0  0  0  0  0
   31.9660   33.6550   25.1470 S   0  0  0  0  0  0  0  0  0  0  0  0
   30.6180   33.9500   25.6730 O   0  0  0  0  0  0  0  0  0  0  0  0
   32.9680   33.5950   26.2290 O   0  0  0  0  0  0  0  0  0  0  0  0
   31.9360   32.1520   24.2780 C   0  0  0  0  0  0  0  0  0  0  0  0
   32.9590   31.7900   24.0060 H   0  0  0  0  0  0  0  0  0  0  0  0
   31.4710   31.3260   24.8810 H   0  0  0  0  0  0  0  0  0  0  0  0
   31.3410   32.2110   23.3300 H   0  0  0  0  0  0  0  0  0  0  0  0
  1  3  2  0  0  0  0
  1  7  1  0  0  0  0
  1 21  1  0  0  0  0
  2 12  1  0  0  0  0
  2 17  2  0  0  0  0
  2 18  1  0  0  0  0
  3 13  1  0  0  0  0
  3 14  1  0  0  0  0
  4 16  2  0  0  0  0
  4 19  1  0  0  0  0
  4 20  1  0  0  0  0
  5  6  1  0  0  0  0
  5 10  1  0  0  0  0
  5 11  2  0  0  0  0
  6 12  2  0  0  0  0
  6 22  1  0  0  0  0
  7  8  2  0  0  0  0
  7 27  1  0  0  0  0
  8  9  1  0  0  0  0
  8 23  1  0  0  0  0
  9 13  2  0  0  0  0
  9 24  1  0  0  0  0
 10 18  1  0  0  0  0
 10 19  2  0  0  0  0
 11 16  1  0  0  0  0
 11 25  1  0  0  0  0
 12 15  1  0  0  0  0
 13 15  1  0  0  0  0
 18 43  1  0  0  0  0
 20 26  1  0  0  0  0
 20 30  1  0  0  0  0
 28 29  1  0  0  0  0
 28 33  1  0  0  0  0
 28 34  1  0  0  0  0
 28 35  1  0  0  0  0
 29 30  1  0  0  0  0
 29 36  1  0  0  0  0
 29 37  1  0  0  0  0
 30 31  1  0  0  0  0
 30 38  1  0  0  0  0
 31 32  1  0  0  0  0
 31 39  1  0  0  0  0
 31 40  1  0  0  0  0
 32 33  1  0  0  0  0
 32 41  1  0  0  0  0
 32 42  1  0  0  0  0
 43 44  1  0  0  0  0
 43 45  1  0  0  0  0
 43 46  1  0  0  0  0
 46 47  1  0  0  0  0
 46 48  1  0  0  0  0
 46 49  1  0  0  0  0
 49 50  2  0  0  0  0
 49 51  2  0  0  0  0
 49 52  1  0  0  0  0
 52 53  1  0  0  0  0
 52 54  1  0  0  0  0
 52 55  1  0  0  0  0
M  END
$$$$
