43 flip
                    3D
 Schrodinger Suite 2022-3.
 44 47  0  0  1  0  0  0  0  0999 V2000
    3.6310  -48.6540    7.2460 O   0  0  0  0  0  0  0  0  0  0  0  0
    3.2090  -49.5520    6.5040 C   0  0  0  0  0  0  0  0  0  0  0  0
    3.8890  -50.3430    5.8240 O   0  5  0  0  0  0  0  0  0  0  0  0
    1.6850  -49.7540    6.4110 C   0  0  0  0  0  0  0  0  0  0  0  0
   -0.2640  -50.9410    6.5810 C   0  0  0  0  0  0  0  0  0  0  0  0
   -1.2570  -51.9060    6.8200 C   0  0  0  0  0  0  0  0  0  0  0  0
   -2.5620  -51.5740    6.4860 C   0  0  0  0  0  0  0  0  0  0  0  0
   -2.8790  -50.3150    5.9250 C   0  0  0  0  0  0  0  0  0  0  0  0
   -1.9020  -49.3560    5.6890 C   0  0  0  0  0  0  0  0  0  0  0  0
   -0.5680  -49.6480    6.0170 C   0  0  0  0  0  0  0  0  0  0  0  0
    0.6800  -48.9190    5.9350 C   0  0  0  0  0  0  0  0  0  0  0  0
    0.8010  -47.5170    5.4530 C   0  0  0  0  0  0  0  0  0  0  0  0
    0.8270  -46.5020    6.6110 C   0  0  0  0  0  0  0  0  0  0  0  0
   -0.4940  -46.4310    7.3690 C   0  0  0  0  0  0  0  0  0  0  0  0
   -1.3890  -45.7080    6.4400 O   0  0  0  0  0  0  0  0  0  0  0  0
   -2.6660  -45.4790    6.8480 C   0  0  0  0  0  0  0  0  0  0  0  0
   -4.7290  -44.3950    6.1810 C   0  0  0  0  0  0  0  0  0  0  0  0
   -3.4270  -44.7030    5.9050 C   0  0  0  0  0  0  0  0  0  0  0  0
   -1.0190  -52.8760    7.2540 H   0  0  0  0  0  0  0  0  0  0  0  0
   -3.3660  -52.2910    6.6570 H   0  0  0  0  0  0  0  0  0  0  0  0
   -3.9200  -50.1040    5.6780 H   0  0  0  0  0  0  0  0  0  0  0  0
   -2.1750  -48.3930    5.2560 H   0  0  0  0  0  0  0  0  0  0  0  0
   -0.0760  -47.2720    4.8000 H   0  0  0  0  0  0  0  0  0  0  0  0
    1.7330  -47.3840    4.8540 H   0  0  0  0  0  0  0  0  0  0  0  0
    1.0420  -45.4900    6.1990 H   0  0  0  0  0  0  0  0  0  0  0  0
    1.6260  -46.7940    7.3370 H   0  0  0  0  0  0  0  0  0  0  0  0
   -0.4240  -45.8120    8.2880 H   0  0  0  0  0  0  0  0  0  0  0  0
   -0.9460  -47.4300    7.5470 H   0  0  0  0  0  0  0  0  0  0  0  0
   -2.9600  -44.3660    4.9870 H   0  0  0  0  0  0  0  0  0  0  0  0
   -3.2190  -45.9110    8.0370 C   0  0  0  0  0  0  0  0  0  0  0  0
   -5.3260  -43.8100    5.4770 H   0  0  0  0  0  0  0  0  0  0  0  0
   -4.5760  -45.5940    8.3270 C   0  0  0  0  0  0  0  0  0  0  0  0
   -5.3470  -44.8490    7.3930 C   0  0  0  0  0  0  0  0  0  0  0  0
   -6.7240  -44.6060    7.6630 C   0  0  0  0  0  0  0  0  0  0  0  0
   -7.2890  -45.0630    8.8280 C   0  0  0  0  0  0  0  0  0  0  0  0
   -6.5030  -45.7450    9.7990 C   0  0  0  0  0  0  0  0  0  0  0  0
   -5.1830  -46.0210    9.5520 C   0  0  0  0  0  0  0  0  0  0  0  0
   -7.3270  -44.0720    6.9260 H   0  0  0  0  0  0  0  0  0  0  0  0
   -8.3460  -44.9320    9.0160 H   0  0  0  0  0  0  0  0  0  0  0  0
   -6.9810  -46.0530   10.7270 H   0  0  0  0  0  0  0  0  0  0  0  0
   -4.5830  -46.5740   10.2740 H   0  0  0  0  0  0  0  0  0  0  0  0
   -2.6690  -46.5020    8.7630 H   0  0  0  0  0  0  0  0  0  0  0  0
    1.1200  -50.9790    6.8150 N   0  0  0  0  0  0  0  0  0  0  0  0
    1.6010  -51.7880    7.1930 H   0  0  0  0  0  0  0  0  0  0  0  0
  1  2  2  0  0  0  0
  2  3  1  0  0  0  0
  2  4  1  0  0  0  0
  4 11  2  0  0  0  0
  4 43  1  0  0  0  0
  5  6  1  0  0  0  0
  5 10  2  0  0  0  0
  5 43  1  0  0  0  0
  6  7  2  0  0  0  0
  6 19  1  0  0  0  0
  7  8  1  0  0  0  0
  7 20  1  0  0  0  0
  8  9  2  0  0  0  0
  8 21  1  0  0  0  0
  9 10  1  0  0  0  0
  9 22  1  0  0  0  0
 10 11  1  0  0  0  0
 11 12  1  0  0  0  0
 12 23  1  0  0  0  0
 12 24  1  0  0  0  0
 12 13  1  0  0  0  0
 13 14  1  0  0  0  0
 13 25  1  0  0  0  0
 13 26  1  0  0  0  0
 14 15  1  0  0  0  0
 14 27  1  0  0  0  0
 14 28  1  0  0  0  0
 15 16  1  0  0  0  0
 16 18  2  0  0  0  0
 16 30  1  0  0  0  0
 17 18  1  0  0  0  0
 17 31  1  0  0  0  0
 17 33  2  0  0  0  0
 18 29  1  0  0  0  0
 30 32  2  0  0  0  0
 30 42  1  0  0  0  0
 32 33  1  0  0  0  0
 32 37  1  0  0  0  0
 33 34  1  0  0  0  0
 34 35  2  0  0  0  0
 34 38  1  0  0  0  0
 35 36  1  0  0  0  0
 35 39  1  0  0  0  0
 36 37  2  0  0  0  0
 36 40  1  0  0  0  0
 37 41  1  0  0  0  0
 43 44  1  0  0  0  0
M  CHG  1   3  -1
M  END
$$$$
