p38a_3flw
 OpenBabel02232411163D
Structure written by MMmdl.
 49 51  0  0  0  0  0  0  0  0999 V2000
   36.3380   36.0120   15.8150 C   0  0  0  0  0  0  0  0  0  0  0  0
   37.6320   36.4980   16.0400 C   0  0  0  0  0  0  0  0  0  0  0  0
   34.9370   39.7680   27.5280 C   0  0  0  0  0  0  0  0  0  0  0  0
   34.8250   39.0180   28.8630 C   0  0  0  0  0  0  0  0  0  0  0  0
   32.5210   39.3660   26.7860 C   0  0  0  0  0  0  0  0  0  0  0  0
   34.2750   35.0260   23.9370 C   0  0  0  0  0  0  0  0  0  0  0  0
   34.4220   35.0530   16.8070 F   0  0  0  0  0  0  0  0  0  0  0  0
   35.6420   35.5580   16.9310 C   0  0  0  0  0  0  0  0  0  0  0  0
   38.2930   37.0130   15.0050 F   0  0  0  0  0  0  0  0  0  0  0  0
   38.2460   36.5050   17.2960 C   0  0  0  0  0  0  0  0  0  0  0  0
   37.5130   36.0750   18.4080 C   0  0  0  0  0  0  0  0  0  0  0  0
   36.2090   35.6060   18.2210 C   0  0  0  0  0  0  0  0  0  0  0  0
   35.4280   35.0420   19.2390 O   0  0  0  0  0  0  0  0  0  0  0  0
   35.1160   35.8930   20.2980 C   0  0  0  0  0  0  0  0  0  0  0  0
   35.1770   37.2440   20.3160 C   0  0  0  0  0  0  0  0  0  0  0  0
   34.8510   37.9330   21.5360 C   0  0  0  0  0  0  0  0  0  0  0  0
   34.7970   39.3480   21.6380 C   0  0  0  0  0  0  0  0  0  0  0  0
   34.5820   39.9900   22.7980 N   0  0  0  0  0  0  0  0  0  0  0  0
   34.6330   35.0670   21.4380 C   0  0  0  0  0  0  0  0  0  0  0  0
   34.3590   33.8890   21.3930 O   0  0  0  0  0  0  0  0  0  0  0  0
   34.4940   35.7920   22.6790 N   0  0  0  0  0  0  0  0  0  0  0  0
   34.5850   37.1890   22.7240 C   0  0  0  0  0  0  0  0  0  0  0  0
   34.3800   37.8150   23.9290 N   0  0  0  0  0  0  0  0  0  0  0  0
   34.4320   39.1960   23.9490 C   0  0  0  0  0  0  0  0  0  0  0  0
   34.3750   39.8470   25.1620 N   0  0  0  0  0  0  0  0  0  0  0  0
   34.0140   39.1610   26.4420 C   0  0  0  0  0  0  0  0  0  0  0  0
   31.5220   38.9790   25.6840 C   0  0  0  0  0  0  0  0  0  0  0  0
   31.6390   37.6130   25.2640 O   0  0  0  0  0  0  0  0  0  0  0  0
   35.8540   39.4360   29.7780 O   0  0  0  0  0  0  0  0  0  0  0  0
   35.8890   36.0160   14.8190 H   0  0  0  0  0  0  0  0  0  0  0  0
   34.6780   40.8450   27.6800 H   0  0  0  0  0  0  0  0  0  0  0  0
   35.9900   39.7190   27.1600 H   0  0  0  0  0  0  0  0  0  0  0  0
   33.8890   39.2900   29.4040 H   0  0  0  0  0  0  0  0  0  0  0  0
   34.9040   37.9160   28.7130 H   0  0  0  0  0  0  0  0  0  0  0  0
   32.3040   38.7620   27.7020 H   0  0  0  0  0  0  0  0  0  0  0  0
   32.3560   40.4440   27.0380 H   0  0  0  0  0  0  0  0  0  0  0  0
   34.9700   35.3980   24.7390 H   0  0  0  0  0  0  0  0  0  0  0  0
   33.2190   35.1550   24.2920 H   0  0  0  0  0  0  0  0  0  0  0  0
   34.4750   33.9360   23.7640 H   0  0  0  0  0  0  0  0  0  0  0  0
   39.2690   36.8700   17.4170 H   0  0  0  0  0  0  0  0  0  0  0  0
   37.9560   36.1350   19.4050 H   0  0  0  0  0  0  0  0  0  0  0  0
   35.4840   37.8420   19.4540 H   0  0  0  0  0  0  0  0  0  0  0  0
   34.9220   39.9710   20.7370 H   0  0  0  0  0  0  0  0  0  0  0  0
   34.2120   40.8750   25.1770 H   0  0  0  0  0  0  0  0  0  0  0  0
   34.2350   38.0620   26.3560 H   0  0  0  0  0  0  0  0  0  0  0  0
   30.4810   39.0320   26.0790 H   0  0  0  0  0  0  0  0  0  0  0  0
   31.6510   39.6370   24.7950 H   0  0  0  0  0  0  0  0  0  0  0  0
   32.5760   37.4520   24.9950 H   0  0  0  0  0  0  0  0  0  0  0  0
   36.7400   39.2690   29.3700 H   0  0  0  0  0  0  0  0  0  0  0  0
  1  2  2  0  0  0  0
  1  8  1  0  0  0  0
  1 30  1  0  0  0  0
  2  9  1  0  0  0  0
  2 10  1  0  0  0  0
  3  4  1  0  0  0  0
  3 26  1  0  0  0  0
  3 31  1  0  0  0  0
  3 32  1  0  0  0  0
  4 29  1  0  0  0  0
  4 33  1  0  0  0  0
  4 34  1  0  0  0  0
  5 26  1  0  0  0  0
  5 27  1  0  0  0  0
  5 35  1  0  0  0  0
  5 36  1  0  0  0  0
  6 21  1  0  0  0  0
  6 37  1  0  0  0  0
  6 38  1  0  0  0  0
  6 39  1  0  0  0  0
  7  8  1  0  0  0  0
  8 12  2  0  0  0  0
 10 11  2  0  0  0  0
 10 40  1  0  0  0  0
 11 12  1  0  0  0  0
 11 41  1  0  0  0  0
 12 13  1  0  0  0  0
 13 14  1  0  0  0  0
 14 15  2  0  0  0  0
 14 19  1  0  0  0  0
 15 16  1  0  0  0  0
 15 42  1  0  0  0  0
 16 17  2  0  0  0  0
 16 22  1  0  0  0  0
 17 18  1  0  0  0  0
 17 43  1  0  0  0  0
 18 24  2  0  0  0  0
 19 20  2  0  0  0  0
 19 21  1  0  0  0  0
 21 22  1  0  0  0  0
 22 23  2  0  0  0  0
 23 24  1  0  0  0  0
 24 25  1  0  0  0  0
 25 26  1  0  0  0  0
 25 44  1  0  0  0  0
 26 45  1  0  0  0  0
 27 28  1  0  0  0  0
 27 46  1  0  0  0  0
 27 47  1  0  0  0  0
 28 48  1  0  0  0  0
 29 49  1  0  0  0  0
M  END
$$$$
