p38a_2u
 OpenBabel02232411163D
Structure written by MMmdl.
 64 68  0  0  0  0  0  0  0  0999 V2000
   38.3050   36.5510   17.1660 C   0  0  0  0  0  0  0  0  0  0  0  0
   34.5650   35.0850   21.2930 C   0  0  0  0  0  0  0  0  0  0  0  0
   37.5530   36.0980   18.2470 C   0  0  0  0  0  0  0  0  0  0  0  0
   33.9710   39.1910   23.7820 C   0  0  0  0  0  0  0  0  0  0  0  0
   34.6560   37.9580   21.4160 C   0  0  0  0  0  0  0  0  0  0  0  0
   35.0940   37.2950   20.2200 C   0  0  0  0  0  0  0  0  0  0  0  0
   37.6290   36.6780   15.9460 C   0  0  0  0  0  0  0  0  0  0  0  0
   36.2820   36.3500   15.7740 C   0  0  0  0  0  0  0  0  0  0  0  0
   35.5520   35.8820   16.8720 C   0  0  0  0  0  0  0  0  0  0  0  0
   34.2500   37.1970   22.5510 C   0  0  0  0  0  0  0  0  0  0  0  0
   34.6270   39.3750   21.5390 C   0  0  0  0  0  0  0  0  0  0  0  0
   35.0870   35.9430   20.1920 C   0  0  0  0  0  0  0  0  0  0  0  0
   36.1940   35.7470   18.1060 C   0  0  0  0  0  0  0  0  0  0  0  0
   38.1150   35.9950   19.4450 F   0  0  0  0  0  0  0  0  0  0  0  0
   35.5140   35.1150   19.1560 O   0  0  0  0  0  0  0  0  0  0  0  0
   34.2990   40.0030   22.6770 N   0  0  0  0  0  0  0  0  0  0  0  0
   34.4590   33.8790   21.2200 O   0  0  0  0  0  0  0  0  0  0  0  0
   34.1700   35.7880   22.4840 N   0  0  0  0  0  0  0  0  0  0  0  0
   33.9300   37.8100   23.7350 N   0  0  0  0  0  0  0  0  0  0  0  0
   33.6070   39.8240   24.9480 N   0  0  0  0  0  0  0  0  0  0  0  0
   39.3570   36.8300   17.2750 H   0  0  0  0  0  0  0  0  0  0  0  0
   35.4300   37.9060   19.3800 H   0  0  0  0  0  0  0  0  0  0  0  0
   35.7880   36.4670   14.8060 H   0  0  0  0  0  0  0  0  0  0  0  0
   34.4900   35.6430   16.7600 H   0  0  0  0  0  0  0  0  0  0  0  0
   34.8810   40.0040   20.6700 H   0  0  0  0  0  0  0  0  0  0  0  0
   33.7280   40.8530   25.0250 H   0  0  0  0  0  0  0  0  0  0  0  0
   38.2960   37.1750   14.9070 F   0  0  0  0  0  0  0  0  0  0  0  0
   32.3940   39.1640   28.5100 C   0  0  0  0  0  0  0  0  0  0  0  0
   32.4300   39.7940   27.1120 C   0  0  0  0  0  0  0  0  0  0  0  0
   33.5080   39.0990   26.2530 C   0  0  0  0  0  0  0  0  0  0  0  0
   34.8710   39.1190   26.9790 C   0  0  0  0  0  0  0  0  0  0  0  0
   34.7210   38.5270   28.3870 C   0  0  0  0  0  0  0  0  0  0  0  0
   33.6930   39.2030   29.1450 O   0  0  0  0  0  0  0  0  0  0  0  0
   32.0460   38.1060   28.4620 H   0  0  0  0  0  0  0  0  0  0  0  0
   31.7720   39.7710   29.2070 H   0  0  0  0  0  0  0  0  0  0  0  0
   32.6590   40.8820   27.1980 H   0  0  0  0  0  0  0  0  0  0  0  0
   31.4330   39.6840   26.6220 H   0  0  0  0  0  0  0  0  0  0  0  0
   33.1980   38.0330   26.0590 H   0  0  0  0  0  0  0  0  0  0  0  0
   35.6150   38.5150   26.4070 H   0  0  0  0  0  0  0  0  0  0  0  0
   35.2480   40.1670   27.0460 H   0  0  0  0  0  0  0  0  0  0  0  0
   34.4810   37.4390   28.3330 H   0  0  0  0  0  0  0  0  0  0  0  0
   35.6310   38.7150   29.0010 H   0  0  0  0  0  0  0  0  0  0  0  0
   34.0510   33.3450   25.4970 C   0  0  0  0  0  0  0  0  0  0  0  0
   34.6170   34.0120   24.2190 C   0  0  0  0  0  0  0  0  0  0  0  0
   33.5940   35.0180   23.6590 C   0  0  0  0  0  0  0  0  0  0  0  0
   32.2750   34.3280   23.2480 C   0  0  0  0  0  0  0  0  0  0  0  0
   32.0360   33.0340   24.0580 C   0  0  0  0  0  0  0  0  0  0  0  0
   34.2820   34.0000   26.3830 H   0  0  0  0  0  0  0  0  0  0  0  0
   34.5620   32.3530   25.6190 H   0  0  0  0  0  0  0  0  0  0  0  0
   34.8450   33.2260   23.4600 H   0  0  0  0  0  0  0  0  0  0  0  0
   35.5650   34.5330   24.4890 H   0  0  0  0  0  0  0  0  0  0  0  0
   33.3640   35.7590   24.4820 H   0  0  0  0  0  0  0  0  0  0  0  0
   31.4330   35.0400   23.4290 H   0  0  0  0  0  0  0  0  0  0  0  0
   32.2690   34.0530   22.1680 H   0  0  0  0  0  0  0  0  0  0  0  0
   30.9310   32.8390   24.0930 H   0  0  0  0  0  0  0  0  0  0  0  0
   32.5400   32.1700   23.5430 H   0  0  0  0  0  0  0  0  0  0  0  0
   32.5650   33.1800   25.4440 N   0  0  0  0  0  0  0  0  0  0  0  0
   31.7800   32.3110   26.7040 S   0  0  0  0  0  0  0  0  0  0  0  0
   30.3390   32.6130   26.6170 O   0  0  0  0  0  0  0  0  0  0  0  0
   32.3750   32.7170   27.9910 O   0  0  0  0  0  0  0  0  0  0  0  0
   32.0440   30.6210   26.4240 C   0  0  0  0  0  0  0  0  0  0  0  0
   33.1180   30.3210   26.5390 H   0  0  0  0  0  0  0  0  0  0  0  0
   31.4580   29.9770   27.1320 H   0  0  0  0  0  0  0  0  0  0  0  0
   31.7520   30.2980   25.3900 H   0  0  0  0  0  0  0  0  0  0  0  0
  1  3  2  0  0  0  0
  1  7  1  0  0  0  0
  1 21  1  0  0  0  0
  2 12  1  0  0  0  0
  2 17  2  0  0  0  0
  2 18  1  0  0  0  0
  3 13  1  0  0  0  0
  3 14  1  0  0  0  0
  4 16  2  0  0  0  0
  4 19  1  0  0  0  0
  4 20  1  0  0  0  0
  5  6  1  0  0  0  0
  5 10  1  0  0  0  0
  5 11  2  0  0  0  0
  6 12  2  0  0  0  0
  6 22  1  0  0  0  0
  7  8  2  0  0  0  0
  7 27  1  0  0  0  0
  8  9  1  0  0  0  0
  8 23  1  0  0  0  0
  9 13  2  0  0  0  0
  9 24  1  0  0  0  0
 10 18  1  0  0  0  0
 10 19  2  0  0  0  0
 11 16  1  0  0  0  0
 11 25  1  0  0  0  0
 12 15  1  0  0  0  0
 13 15  1  0  0  0  0
 18 45  1  0  0  0  0
 20 26  1  0  0  0  0
 20 30  1  0  0  0  0
 28 29  1  0  0  0  0
 28 33  1  0  0  0  0
 28 34  1  0  0  0  0
 28 35  1  0  0  0  0
 29 30  1  0  0  0  0
 29 36  1  0  0  0  0
 29 37  1  0  0  0  0
 30 31  1  0  0  0  0
 30 38  1  0  0  0  0
 31 32  1  0  0  0  0
 31 39  1  0  0  0  0
 31 40  1  0  0  0  0
 32 33  1  0  0  0  0
 32 41  1  0  0  0  0
 32 42  1  0  0  0  0
 43 44  1  0  0  0  0
 43 48  1  0  0  0  0
 43 49  1  0  0  0  0
 43 57  1  0  0  0  0
 44 45  1  0  0  0  0
 44 50  1  0  0  0  0
 44 51  1  0  0  0  0
 45 46  1  0  0  0  0
 45 52  1  0  0  0  0
 46 47  1  0  0  0  0
 46 53  1  0  0  0  0
 46 54  1  0  0  0  0
 47 55  1  0  0  0  0
 47 56  1  0  0  0  0
 47 57  1  0  0  0  0
 57 58  1  0  0  0  0
 58 59  2  0  0  0  0
 58 60  2  0  0  0  0
 58 61  1  0  0  0  0
 61 62  1  0  0  0  0
 61 63  1  0  0  0  0
 61 64  1  0  0  0  0
M  END
$$$$
