51 flip
                    3D
 Schrodinger Suite 2022-3.
 44 47  0  0  1  0  0  0  0  0999 V2000
    3.4340  -48.1010    7.3330 O   0  0  0  0  0  0  0  0  0  0  0  0
    3.1790  -49.1360    6.7060 C   0  0  0  0  0  0  0  0  0  0  0  0
    3.9750  -49.8670    6.0880 O   0  5  0  0  0  0  0  0  0  0  0  0
    1.7130  -49.6080    6.6950 C   0  0  0  0  0  0  0  0  0  0  0  0
    0.0260  -51.1090    7.0210 C   0  0  0  0  0  0  0  0  0  0  0  0
   -0.7520  -52.2360    7.3460 C   0  0  0  0  0  0  0  0  0  0  0  0
   -2.1150  -52.1710    7.1120 C   0  0  0  0  0  0  0  0  0  0  0  0
   -2.7080  -51.0090    6.5660 C   0  0  0  0  0  0  0  0  0  0  0  0
   -1.9260  -49.9080    6.2590 C   0  0  0  0  0  0  0  0  0  0  0  0
   -0.5380  -49.8970    6.4640 C   0  0  0  0  0  0  0  0  0  0  0  0
    0.5510  -48.9640    6.2770 C   0  0  0  0  0  0  0  0  0  0  0  0
    0.4710  -47.5830    5.7220 C   0  0  0  0  0  0  0  0  0  0  0  0
    0.3340  -46.4870    6.7960 C   0  0  0  0  0  0  0  0  0  0  0  0
   -1.0090  -46.4950    7.5300 C   0  0  0  0  0  0  0  0  0  0  0  0
   -1.9480  -45.9810    6.5250 O   0  0  0  0  0  0  0  0  0  0  0  0
   -3.1860  -45.5010    6.8260 C   0  0  0  0  0  0  0  0  0  0  0  0
   -5.7080  -44.2560    7.0290 C   0  0  0  0  0  0  0  0  0  0  0  0
   -4.9050  -44.0200    5.9370 C   0  0  0  0  0  0  0  0  0  0  0  0
   -3.6410  -44.6320    5.8350 C   0  0  0  0  0  0  0  0  0  0  0  0
   -0.3000  -53.1340    7.7710 H   0  0  0  0  0  0  0  0  0  0  0  0
   -2.7540  -53.0230    7.3540 H   0  0  0  0  0  0  0  0  0  0  0  0
   -3.7860  -50.9970    6.3980 H   0  0  0  0  0  0  0  0  0  0  0  0
   -2.7070  -48.5070    5.6200 Cl  0  0  0  0  0  0  0  0  0  0  0  0
   -0.3950  -47.4970    5.0180 H   0  0  0  0  0  0  0  0  0  0  0  0
    1.4020  -47.3650    5.1380 H   0  0  0  0  0  0  0  0  0  0  0  0
    0.4510  -45.4910    6.3060 H   0  0  0  0  0  0  0  0  0  0  0  0
    1.1380  -46.6200    7.5610 H   0  0  0  0  0  0  0  0  0  0  0  0
   -1.0220  -45.8000    8.3950 H   0  0  0  0  0  0  0  0  0  0  0  0
   -1.3180  -47.5290    7.7830 H   0  0  0  0  0  0  0  0  0  0  0  0
   -3.0230  -44.4130    4.9720 H   0  0  0  0  0  0  0  0  0  0  0  0
   -5.2770  -45.1520    8.0500 C   0  0  0  0  0  0  0  0  0  0  0  0
   -4.0240  -45.8310    7.9540 C   0  0  0  0  0  0  0  0  0  0  0  0
   -3.7340  -46.8270    8.9340 C   0  0  0  0  0  0  0  0  0  0  0  0
   -4.5890  -47.0780    9.9790 C   0  0  0  0  0  0  0  0  0  0  0  0
   -5.7960  -46.3390   10.1120 C   0  0  0  0  0  0  0  0  0  0  0  0
   -6.1350  -45.4040    9.1710 C   0  0  0  0  0  0  0  0  0  0  0  0
   -2.8430  -47.4470    8.8500 H   0  0  0  0  0  0  0  0  0  0  0  0
   -4.3730  -47.8610   10.7050 H   0  0  0  0  0  0  0  0  0  0  0  0
   -6.4570  -46.5450   10.9500 H   0  0  0  0  0  0  0  0  0  0  0  0
   -7.0710  -44.8520    9.2470 H   0  0  0  0  0  0  0  0  0  0  0  0
   -5.2350  -43.3500    5.1400 H   0  0  0  0  0  0  0  0  0  0  0  0
   -6.6840  -43.7820    7.1170 H   0  0  0  0  0  0  0  0  0  0  0  0
    1.4020  -50.9010    7.1540 N   0  0  0  0  0  0  0  0  0  0  0  0
    2.0420  -51.6050    7.5060 H   0  0  0  0  0  0  0  0  0  0  0  0
  1  2  2  0  0  0  0
  2  3  1  0  0  0  0
  2  4  1  0  0  0  0
  4 11  2  0  0  0  0
  4 43  1  0  0  0  0
  5  6  1  0  0  0  0
  5 10  2  0  0  0  0
  5 43  1  0  0  0  0
  6  7  2  0  0  0  0
  6 20  1  0  0  0  0
  7  8  1  0  0  0  0
  7 21  1  0  0  0  0
  8  9  2  0  0  0  0
  8 22  1  0  0  0  0
  9 10  1  0  0  0  0
  9 23  1  0  0  0  0
 10 11  1  0  0  0  0
 11 12  1  0  0  0  0
 12 24  1  0  0  0  0
 12 25  1  0  0  0  0
 12 13  1  0  0  0  0
 13 14  1  0  0  0  0
 13 26  1  0  0  0  0
 13 27  1  0  0  0  0
 14 15  1  0  0  0  0
 14 28  1  0  0  0  0
 14 29  1  0  0  0  0
 15 16  1  0  0  0  0
 16 19  2  0  0  0  0
 16 32  1  0  0  0  0
 17 18  2  0  0  0  0
 17 31  1  0  0  0  0
 17 42  1  0  0  0  0
 18 19  1  0  0  0  0
 18 41  1  0  0  0  0
 19 30  1  0  0  0  0
 31 32  2  0  0  0  0
 31 36  1  0  0  0  0
 32 33  1  0  0  0  0
 33 34  2  0  0  0  0
 33 37  1  0  0  0  0
 34 35  1  0  0  0  0
 34 38  1  0  0  0  0
 35 36  2  0  0  0  0
 35 39  1  0  0  0  0
 36 40  1  0  0  0  0
 43 44  1  0  0  0  0
M  CHG  1   3  -1
M  END
$$$$
