ejm_43
 OpenBabel02232411173D
Structure written by MMmdl.
 38 39  0  0  0  0  0  0  0  0999 V2000
   -1.6290   21.5190  -27.6150 C   0  0  0  0  0  0  0  0  0  0  0  0
   -1.1200   22.5830  -28.3630 C   0  0  0  0  0  0  0  0  0  0  0  0
   -1.9040   23.1480  -29.3710 C   0  0  0  0  0  0  0  0  0  0  0  0
   -3.1850   22.6680  -29.6690 C   0  0  0  0  0  0  0  0  0  0  0  0
   -3.6720   21.6020  -28.8960 C   0  0  0  0  0  0  0  0  0  0  0  0
   -2.9130   21.0320  -27.8730 C   0  0  0  0  0  0  0  0  0  0  0  0
   -5.2350   20.9790  -29.2220 Cl  0  0  0  0  0  0  0  0  0  0  0  0
   -4.0330   23.1940  -30.7920 C   0  0  0  0  0  0  0  0  0  0  0  0
   -4.4370   22.4870  -31.6900 O   0  0  0  0  0  0  0  0  0  0  0  0
   -4.3370   24.5660  -30.6720 N   0  0  0  0  0  0  0  0  0  0  0  0
   -5.1950   25.3250  -31.5160 C   0  0  0  0  0  0  0  0  0  0  0  0
   -5.8540   24.7960  -32.6380 C   0  0  0  0  0  0  0  0  0  0  0  0
   -6.7220   25.6320  -33.3560 C   0  0  0  0  0  0  0  0  0  0  0  0
   -6.9490   26.9300  -33.0350 N   0  0  0  0  0  0  0  0  0  0  0  0
   -6.2810   27.4400  -31.9380 C   0  0  0  0  0  0  0  0  0  0  0  0
   -5.3970   26.6760  -31.1630 C   0  0  0  0  0  0  0  0  0  0  0  0
   -6.5890   28.7950  -31.6400 N   0  0  0  0  0  0  0  0  0  0  0  0
   -5.7810   29.6920  -30.8880 C   0  0  0  0  0  0  0  0  0  0  0  0
   -4.8000   29.2930  -30.2940 O   0  0  0  0  0  0  0  0  0  0  0  0
   -6.2780   31.1410  -30.9010 C   0  0  0  0  0  0  0  0  0  0  0  0
   -1.2530   24.4770  -30.2350 Cl  0  0  0  0  0  0  0  0  0  0  0  0
   -6.1150   31.7040  -32.3160 C   0  0  0  0  0  0  0  0  0  0  0  0
   -1.0210   21.0710  -26.8200 H   0  0  0  0  0  0  0  0  0  0  0  0
   -0.1190   22.9670  -28.1420 H   0  0  0  0  0  0  0  0  0  0  0  0
   -3.3070   20.2180  -27.2620 H   0  0  0  0  0  0  0  0  0  0  0  0
   -3.9260   25.0770  -29.8680 H   0  0  0  0  0  0  0  0  0  0  0  0
   -5.7230   23.7560  -32.9500 H   0  0  0  0  0  0  0  0  0  0  0  0
   -7.2720   25.2470  -34.2330 H   0  0  0  0  0  0  0  0  0  0  0  0
   -4.8780   27.1180  -30.3070 H   0  0  0  0  0  0  0  0  0  0  0  0
   -7.4800   29.1590  -32.0460 H   0  0  0  0  0  0  0  0  0  0  0  0
   -5.5280   31.9720  -29.8600 C   0  0  0  0  0  0  0  0  0  0  0  0
   -7.3720   31.1710  -30.6540 H   0  0  0  0  0  0  0  0  0  0  0  0
   -5.9400   33.0110  -29.8550 H   0  0  0  0  0  0  0  0  0  0  0  0
   -5.6500   31.5470  -28.8400 H   0  0  0  0  0  0  0  0  0  0  0  0
   -4.4420   32.0280  -30.0980 H   0  0  0  0  0  0  0  0  0  0  0  0
   -6.3390   32.7980  -32.3080 H   0  0  0  0  0  0  0  0  0  0  0  0
   -5.0880   31.5460  -32.7030 H   0  0  0  0  0  0  0  0  0  0  0  0
   -6.8530   31.2160  -32.9920 H   0  0  0  0  0  0  0  0  0  0  0  0
  1  2  2  0  0  0  0
  1  6  1  0  0  0  0
  1 23  1  0  0  0  0
  2  3  1  0  0  0  0
  2 24  1  0  0  0  0
  3  4  2  0  0  0  0
  3 21  1  0  0  0  0
  4  5  1  0  0  0  0
  4  8  1  0  0  0  0
  5  6  2  0  0  0  0
  5  7  1  0  0  0  0
  6 25  1  0  0  0  0
  8  9  2  0  0  0  0
  8 10  1  0  0  0  0
 10 11  1  0  0  0  0
 10 26  1  0  0  0  0
 11 12  2  0  0  0  0
 11 16  1  0  0  0  0
 12 13  1  0  0  0  0
 12 27  1  0  0  0  0
 13 14  2  0  0  0  0
 13 28  1  0  0  0  0
 14 15  1  0  0  0  0
 15 16  2  0  0  0  0
 15 17  1  0  0  0  0
 16 29  1  0  0  0  0
 17 18  1  0  0  0  0
 17 30  1  0  0  0  0
 18 19  2  0  0  0  0
 18 20  1  0  0  0  0
 20 22  1  0  0  0  0
 20 31  1  0  0  0  0
 20 32  1  0  0  0  0
 22 36  1  0  0  0  0
 22 37  1  0  0  0  0
 22 38  1  0  0  0  0
 31 33  1  0  0  0  0
 31 34  1  0  0  0  0
 31 35  1  0  0  0  0
M  END
$$$$
