p38a_2aa
 OpenBabel02232411163D
Structure written by MMmdl.
 43 45  0  0  0  0  0  0  0  0999 V2000
   36.3750   36.0630   15.7750 C   0  0  0  0  0  0  0  0  0  0  0  0
   34.5000   34.9730   21.2150 C   0  0  0  0  0  0  0  0  0  0  0  0
   35.7580   35.5680   16.9200 C   0  0  0  0  0  0  0  0  0  0  0  0
   33.7750   39.0320   23.7430 C   0  0  0  0  0  0  0  0  0  0  0  0
   32.6450   38.9430   25.9690 C   0  0  0  0  0  0  0  0  0  0  0  0
   34.7190   37.8360   21.4470 C   0  0  0  0  0  0  0  0  0  0  0  0
   35.2790   37.1770   20.2960 C   0  0  0  0  0  0  0  0  0  0  0  0
   37.6630   36.5910   15.9380 C   0  0  0  0  0  0  0  0  0  0  0  0
   38.3380   36.6090   17.1610 C   0  0  0  0  0  0  0  0  0  0  0  0
   37.6810   36.1420   18.3060 C   0  0  0  0  0  0  0  0  0  0  0  0
   34.1430   37.0680   22.5010 C   0  0  0  0  0  0  0  0  0  0  0  0
   34.7230   39.2480   21.6090 C   0  0  0  0  0  0  0  0  0  0  0  0
   35.1990   35.8290   20.2170 C   0  0  0  0  0  0  0  0  0  0  0  0
   36.3910   35.6210   18.1790 C   0  0  0  0  0  0  0  0  0  0  0  0
   33.4160   34.8960   23.4920 C   0  0  0  0  0  0  0  0  0  0  0  0
   34.5530   35.0190   16.8520 F   0  0  0  0  0  0  0  0  0  0  0  0
   35.7120   34.9910   19.2300 O   0  0  0  0  0  0  0  0  0  0  0  0
   34.2640   39.8570   22.7140 N   0  0  0  0  0  0  0  0  0  0  0  0
   34.3080   33.7820   21.1020 O   0  0  0  0  0  0  0  0  0  0  0  0
   34.0360   35.6720   22.3820 N   0  0  0  0  0  0  0  0  0  0  0  0
   33.6710   37.6610   23.6470 N   0  0  0  0  0  0  0  0  0  0  0  0
   33.4740   39.6450   24.9530 N   0  0  0  0  0  0  0  0  0  0  0  0
   35.8760   36.0600   14.8030 H   0  0  0  0  0  0  0  0  0  0  0  0
   32.5640   39.8630   27.2170 C   0  0  0  0  0  0  0  0  0  0  0  0
   35.7620   37.7930   19.5340 H   0  0  0  0  0  0  0  0  0  0  0  0
   39.3520   37.0090   17.2380 H   0  0  0  0  0  0  0  0  0  0  0  0
   38.1740   36.2090   19.2780 H   0  0  0  0  0  0  0  0  0  0  0  0
   35.1060   39.8900   20.8000 H   0  0  0  0  0  0  0  0  0  0  0  0
   33.9540   35.1080   24.4570 H   0  0  0  0  0  0  0  0  0  0  0  0
   32.3390   35.1890   23.6150 H   0  0  0  0  0  0  0  0  0  0  0  0
   33.4770   33.7970   23.2790 H   0  0  0  0  0  0  0  0  0  0  0  0
   33.3660   40.6800   24.9580 H   0  0  0  0  0  0  0  0  0  0  0  0
   38.2530   37.1330   14.8760 F   0  0  0  0  0  0  0  0  0  0  0  0
   31.2250   38.5660   25.4650 C   0  0  0  0  0  0  0  0  0  0  0  0
   30.7460   39.5070   24.5030 O   0  0  0  0  0  0  0  0  0  0  0  0
   30.2370   40.2320   24.9630 H   0  0  0  0  0  0  0  0  0  0  0  0
   31.2600   37.6060   24.8950 H   0  0  0  0  0  0  0  0  0  0  0  0
   30.5270   38.5100   26.3310 H   0  0  0  0  0  0  0  0  0  0  0  0
   31.6730   39.2840   28.1780 O   0  0  0  0  0  0  0  0  0  0  0  0
   33.5710   40.0180   27.6690 H   0  0  0  0  0  0  0  0  0  0  0  0
   32.0760   40.8330   26.9760 H   0  0  0  0  0  0  0  0  0  0  0  0
   32.0980   38.4850   28.5870 H   0  0  0  0  0  0  0  0  0  0  0  0
   33.1740   37.9880   26.2620 H   0  0  0  0  0  0  0  0  0  0  0  0
  1  3  2  0  0  0  0
  1  8  1  0  0  0  0
  1 23  1  0  0  0  0
  2 13  1  0  0  0  0
  2 19  2  0  0  0  0
  2 20  1  0  0  0  0
  3 14  1  0  0  0  0
  3 16  1  0  0  0  0
  4 18  2  0  0  0  0
  4 21  1  0  0  0  0
  4 22  1  0  0  0  0
  5 22  1  0  0  0  0
  5 24  1  0  0  0  0
  5 34  1  0  0  0  0
  5 43  1  0  0  0  0
  6  7  1  0  0  0  0
  6 11  1  0  0  0  0
  6 12  2  0  0  0  0
  7 13  2  0  0  0  0
  7 25  1  0  0  0  0
  8  9  2  0  0  0  0
  8 33  1  0  0  0  0
  9 10  1  0  0  0  0
  9 26  1  0  0  0  0
 10 14  2  0  0  0  0
 10 27  1  0  0  0  0
 11 20  1  0  0  0  0
 11 21  2  0  0  0  0
 12 18  1  0  0  0  0
 12 28  1  0  0  0  0
 13 17  1  0  0  0  0
 14 17  1  0  0  0  0
 15 20  1  0  0  0  0
 15 29  1  0  0  0  0
 15 30  1  0  0  0  0
 15 31  1  0  0  0  0
 22 32  1  0  0  0  0
 24 39  1  0  0  0  0
 24 40  1  0  0  0  0
 24 41  1  0  0  0  0
 34 35  1  0  0  0  0
 34 37  1  0  0  0  0
 34 38  1  0  0  0  0
 35 36  1  0  0  0  0
 39 42  1  0  0  0  0
M  END
$$$$
