18629-1 flip
                    3D
 Schrodinger Suite 2022-3.
 41 42  0  0  1  0  0  0  0  0999 V2000
   25.1820    3.0510   31.9250 C   0  0  0  0  0  0  0  0  0  0  0  0
   23.8500    3.1390   31.5110 C   0  0  0  0  0  0  0  0  0  0  0  0
   23.4860    4.0640   30.5220 C   0  0  0  0  0  0  0  0  0  0  0  0
   24.4690    4.8650   29.9250 C   0  0  0  0  0  0  0  0  0  0  0  0
   25.8080    4.7800   30.3420 C   0  0  0  0  0  0  0  0  0  0  0  0
   26.1570    3.8700   31.3530 C   0  0  0  0  0  0  0  0  0  0  0  0
   22.0420    4.1930   30.1100 C   0  0  0  0  0  0  0  0  0  0  0  0
   21.2630    5.2070   30.9310 C   0  0  0  0  0  0  0  0  0  0  0  0
   21.8410    6.4990   30.9570 N   0  0  0  0  0  0  0  0  0  0  0  0
   21.2760    7.6670   31.5230 C   0  0  0  0  0  0  0  0  0  0  0  0
   20.2030    4.9640   31.4680 O   0  0  0  0  0  0  0  0  0  0  0  0
   22.0160    8.7960   31.2050 N   0  0  0  0  0  0  0  0  0  0  0  0
   21.5490    9.9920   31.6300 C   0  0  0  0  0  0  0  0  0  0  0  0
   20.3640   10.1670   32.4060 C   0  0  0  0  0  0  0  0  0  0  0  0
   19.6400    8.9780   32.7450 C   0  0  0  0  0  0  0  0  0  0  0  0
   20.1170    7.7190   32.2900 C   0  0  0  0  0  0  0  0  0  0  0  0
   18.4850    9.0370   33.4830 N   0  0  0  0  0  0  0  0  0  0  0  0
   19.9620   11.4710   32.7620 C   0  0  0  0  0  0  0  0  0  0  0  0
   22.2050   11.1250   31.2980 O   0  0  0  0  0  0  0  0  0  0  0  0
   23.4840   11.0410   30.5610 C   0  0  0  0  0  0  0  0  0  0  0  0
   23.2380   10.8100   29.0860 C   0  0  0  0  0  0  0  0  0  0  0  0
   19.6820   12.5680   33.0150 N   0  0  0  0  0  0  0  0  0  0  0  0
   25.4640    2.3320   32.7010 H   0  0  0  0  0  0  0  0  0  0  0  0
   24.2130    5.5630   29.1260 H   0  0  0  0  0  0  0  0  0  0  0  0
   19.5560    6.8140   32.5320 H   0  0  0  0  0  0  0  0  0  0  0  0
   21.5430    3.1930   30.2150 H   0  0  0  0  0  0  0  0  0  0  0  0
   21.9710    4.5060   29.0360 H   0  0  0  0  0  0  0  0  0  0  0  0
   22.7480    6.6460   30.4710 H   0  0  0  0  0  0  0  0  0  0  0  0
   17.9870    8.1710   33.7660 H   0  0  0  0  0  0  0  0  0  0  0  0
   18.0960    9.9280   33.7910 H   0  0  0  0  0  0  0  0  0  0  0  0
   24.1230   10.2490   31.0130 H   0  0  0  0  0  0  0  0  0  0  0  0
   23.8730   12.0670   30.7680 H   0  0  0  0  0  0  0  0  0  0  0  0
   24.1980   10.9500   28.5270 H   0  0  0  0  0  0  0  0  0  0  0  0
   22.8760    9.7730   28.8910 H   0  0  0  0  0  0  0  0  0  0  0  0
   22.4950   11.5310   28.6790 H   0  0  0  0  0  0  0  0  0  0  0  0
   27.1940    3.7970   31.6920 H   0  0  0  0  0  0  0  0  0  0  0  0
   23.1080    2.4730   31.9530 H   0  0  0  0  0  0  0  0  0  0  0  0
   26.8380    5.6630   29.7190 C   0  0  0  0  0  0  0  0  0  0  0  0
   27.8770    5.3230   29.9510 H   0  0  0  0  0  0  0  0  0  0  0  0
   26.7280    5.6910   28.6080 H   0  0  0  0  0  0  0  0  0  0  0  0
   26.7240    6.7100   30.1020 H   0  0  0  0  0  0  0  0  0  0  0  0
  1  2  1  0  0  0  0
  1  6  2  0  0  0  0
  1 23  1  0  0  0  0
  2  3  2  0  0  0  0
  2 37  1  0  0  0  0
  3  4  1  0  0  0  0
  3  7  1  0  0  0  0
  4  5  2  0  0  0  0
  4 24  1  0  0  0  0
  5  6  1  0  0  0  0
  5 38  1  0  0  0  0
  6 36  1  0  0  0  0
  7  8  1  0  0  0  0
  7 26  1  0  0  0  0
  7 27  1  0  0  0  0
  8  9  1  0  0  0  0
  8 11  2  0  0  0  0
  9 10  1  0  0  0  0
  9 28  1  0  0  0  0
 10 12  1  0  0  0  0
 10 16  2  0  0  0  0
 12 13  2  0  0  0  0
 13 14  1  0  0  0  0
 13 19  1  0  0  0  0
 14 15  2  0  0  0  0
 14 18  1  0  0  0  0
 15 16  1  0  0  0  0
 15 17  1  0  0  0  0
 16 25  1  0  0  0  0
 17 29  1  0  0  0  0
 17 30  1  0  0  0  0
 18 22  3  0  0  0  0
 19 20  1  0  0  0  0
 20 21  1  0  0  0  0
 20 31  1  0  0  0  0
 20 32  1  0  0  0  0
 21 33  1  0  0  0  0
 21 34  1  0  0  0  0
 21 35  1  0  0  0  0
 38 39  1  0  0  0  0
 38 40  1  0  0  0  0
 38 41  1  0  0  0  0
M  END
$$$$
