p38a_2z
 OpenBabel02232411163D
Structure written by MMmdl.
 45 47  0  0  0  0  0  0  0  0999 V2000
   36.3570   36.0130   15.8600 C   0  0  0  0  0  0  0  0  0  0  0  0
   34.5340   35.0410   21.4280 C   0  0  0  0  0  0  0  0  0  0  0  0
   35.6530   35.5710   16.9750 C   0  0  0  0  0  0  0  0  0  0  0  0
   34.1210   39.1120   24.0130 C   0  0  0  0  0  0  0  0  0  0  0  0
   33.7510   39.0960   26.5520 C   0  0  0  0  0  0  0  0  0  0  0  0
   34.7480   37.9060   21.6060 C   0  0  0  0  0  0  0  0  0  0  0  0
   35.1510   37.2440   20.3940 C   0  0  0  0  0  0  0  0  0  0  0  0
   37.6530   36.4940   16.0900 C   0  0  0  0  0  0  0  0  0  0  0  0
   38.2570   36.5060   17.3500 C   0  0  0  0  0  0  0  0  0  0  0  0
   37.5150   36.0900   18.4610 C   0  0  0  0  0  0  0  0  0  0  0  0
   34.3610   37.1400   22.7460 C   0  0  0  0  0  0  0  0  0  0  0  0
   34.7270   39.3200   21.7520 C   0  0  0  0  0  0  0  0  0  0  0  0
   35.0790   35.8940   20.3370 C   0  0  0  0  0  0  0  0  0  0  0  0
   36.2110   35.6260   18.2690 C   0  0  0  0  0  0  0  0  0  0  0  0
   33.8730   34.9620   23.8630 C   0  0  0  0  0  0  0  0  0  0  0  0
   34.4320   35.0690   16.8450 F   0  0  0  0  0  0  0  0  0  0  0  0
   35.4250   35.0580   19.2780 O   0  0  0  0  0  0  0  0  0  0  0  0
   34.4230   39.9330   22.9050 N   0  0  0  0  0  0  0  0  0  0  0  0
   34.3070   33.8540   21.3440 O   0  0  0  0  0  0  0  0  0  0  0  0
   34.2690   35.7420   22.6570 N   0  0  0  0  0  0  0  0  0  0  0  0
   34.0590   37.7340   23.9460 N   0  0  0  0  0  0  0  0  0  0  0  0
   33.8090   39.7520   25.1920 N   0  0  0  0  0  0  0  0  0  0  0  0
   35.9170   36.0100   14.8600 H   0  0  0  0  0  0  0  0  0  0  0  0
   33.5570   40.2250   27.5790 C   0  0  0  0  0  0  0  0  0  0  0  0
   35.5160   37.8590   19.5670 H   0  0  0  0  0  0  0  0  0  0  0  0
   39.2830   36.8650   17.4740 H   0  0  0  0  0  0  0  0  0  0  0  0
   37.9520   36.1510   19.4600 H   0  0  0  0  0  0  0  0  0  0  0  0
   34.9690   39.9620   20.8880 H   0  0  0  0  0  0  0  0  0  0  0  0
   34.5570   35.2120   24.7190 H   0  0  0  0  0  0  0  0  0  0  0  0
   32.8210   35.2170   24.1580 H   0  0  0  0  0  0  0  0  0  0  0  0
   33.9420   33.8620   23.6540 H   0  0  0  0  0  0  0  0  0  0  0  0
   33.8860   40.7930   25.2160 H   0  0  0  0  0  0  0  0  0  0  0  0
   38.3230   37.0000   15.0580 F   0  0  0  0  0  0  0  0  0  0  0  0
   32.5100   38.1460   26.5730 C   0  0  0  0  0  0  0  0  0  0  0  0
   35.0560   38.3370   26.8410 C   0  0  0  0  0  0  0  0  0  0  0  0
   32.2210   37.7160   27.9120 O   0  0  0  0  0  0  0  0  0  0  0  0
   32.9450   37.1200   28.2300 H   0  0  0  0  0  0  0  0  0  0  0  0
   31.5880   38.6990   26.2830 H   0  0  0  0  0  0  0  0  0  0  0  0
   32.6740   37.2480   25.9350 H   0  0  0  0  0  0  0  0  0  0  0  0
   35.1030   38.0590   27.9190 H   0  0  0  0  0  0  0  0  0  0  0  0
   35.1290   37.4050   26.2370 H   0  0  0  0  0  0  0  0  0  0  0  0
   35.9370   38.9770   26.6180 H   0  0  0  0  0  0  0  0  0  0  0  0
   33.4080   39.7860   28.5920 H   0  0  0  0  0  0  0  0  0  0  0  0
   34.4480   40.8940   27.6110 H   0  0  0  0  0  0  0  0  0  0  0  0
   32.6640   40.8410   27.3330 H   0  0  0  0  0  0  0  0  0  0  0  0
  1  3  2  0  0  0  0
  1  8  1  0  0  0  0
  1 23  1  0  0  0  0
  2 13  1  0  0  0  0
  2 19  2  0  0  0  0
  2 20  1  0  0  0  0
  3 14  1  0  0  0  0
  3 16  1  0  0  0  0
  4 18  2  0  0  0  0
  4 21  1  0  0  0  0
  4 22  1  0  0  0  0
  5 22  1  0  0  0  0
  5 24  1  0  0  0  0
  5 34  1  0  0  0  0
  5 35  1  0  0  0  0
  6  7  1  0  0  0  0
  6 11  1  0  0  0  0
  6 12  2  0  0  0  0
  7 13  2  0  0  0  0
  7 25  1  0  0  0  0
  8  9  2  0  0  0  0
  8 33  1  0  0  0  0
  9 10  1  0  0  0  0
  9 26  1  0  0  0  0
 10 14  2  0  0  0  0
 10 27  1  0  0  0  0
 11 20  1  0  0  0  0
 11 21  2  0  0  0  0
 12 18  1  0  0  0  0
 12 28  1  0  0  0  0
 13 17  1  0  0  0  0
 14 17  1  0  0  0  0
 15 20  1  0  0  0  0
 15 29  1  0  0  0  0
 15 30  1  0  0  0  0
 15 31  1  0  0  0  0
 22 32  1  0  0  0  0
 24 43  1  0  0  0  0
 24 44  1  0  0  0  0
 24 45  1  0  0  0  0
 34 36  1  0  0  0  0
 34 38  1  0  0  0  0
 34 39  1  0  0  0  0
 35 40  1  0  0  0  0
 35 41  1  0  0  0  0
 35 42  1  0  0  0  0
 36 37  1  0  0  0  0
M  END
$$$$
