26.pdb
 OpenBabel02232411163D

 43 46  0  0  0  0  0  0  0  0999 V2000
    3.6350  -50.1520    6.1500 O   0  5  0  0  0  0  0  0  0  0  0  0
    2.9800  -49.1850    6.5640 C   0  0  0  0  0  0  0  0  0  0  0  0
    3.3860  -48.1620    7.1250 O   0  0  0  0  0  0  0  0  0  0  0  0
    1.4470  -49.3280    6.3720 C   0  0  0  0  0  0  0  0  0  0  0  0
    1.0280  -50.6400    6.6910 O   0  0  0  0  0  0  0  0  0  0  0  0
   -0.3530  -50.6650    6.4850 C   0  0  0  0  0  0  0  0  0  0  0  0
   -1.2030  -51.7450    6.7010 C   0  0  0  0  0  0  0  0  0  0  0  0
   -0.8610  -52.7140    7.0650 H   0  0  0  0  0  0  0  0  0  0  0  0
   -2.5560  -51.5250    6.4320 C   0  0  0  0  0  0  0  0  0  0  0  0
   -3.2750  -52.3310    6.5910 H   0  0  0  0  0  0  0  0  0  0  0  0
   -3.0190  -50.2810    5.9650 C   0  0  0  0  0  0  0  0  0  0  0  0
   -4.0850  -50.1550    5.7650 H   0  0  0  0  0  0  0  0  0  0  0  0
   -2.1530  -49.2060    5.7550 C   0  0  0  0  0  0  0  0  0  0  0  0
   -2.5430  -48.2500    5.4010 H   0  0  0  0  0  0  0  0  0  0  0  0
   -0.7930  -49.3870    6.0200 C   0  0  0  0  0  0  0  0  0  0  0  0
    0.3960  -48.5470    5.9680 C   0  0  0  0  0  0  0  0  0  0  0  0
    0.3810  -47.1250    5.5390 C   0  0  0  0  0  0  0  0  0  0  0  0
    1.3200  -46.8680    4.9910 H   0  0  0  0  0  0  0  0  0  0  0  0
   -0.4910  -46.9780    4.8470 H   0  0  0  0  0  0  0  0  0  0  0  0
    0.2210  -46.1390    6.7110 C   0  0  0  0  0  0  0  0  0  0  0  0
    1.0270  -46.3180    7.4630 H   0  0  0  0  0  0  0  0  0  0  0  0
    0.3070  -45.0980    6.3210 H   0  0  0  0  0  0  0  0  0  0  0  0
   -1.1210  -46.2770    7.4340 C   0  0  0  0  0  0  0  0  0  0  0  0
   -1.2290  -45.5520    8.2650 H   0  0  0  0  0  0  0  0  0  0  0  0
   -1.3060  -47.3320    7.7280 H   0  0  0  0  0  0  0  0  0  0  0  0
   -2.1270  -45.9720    6.4060 O   0  0  0  0  0  0  0  0  0  0  0  0
   -3.3420  -45.4390    6.7390 C   0  0  0  0  0  0  0  0  0  0  0  0
   -4.1450  -45.7790    7.8890 C   0  0  0  0  0  0  0  0  0  0  0  0
   -5.3900  -45.0990    8.0340 C   0  0  0  0  0  0  0  0  0  0  0  0
   -5.8510  -44.1980    7.0280 C   0  0  0  0  0  0  0  0  0  0  0  0
   -6.8250  -43.7250    7.1470 H   0  0  0  0  0  0  0  0  0  0  0  0
   -5.0830  -43.9540    5.9140 C   0  0  0  0  0  0  0  0  0  0  0  0
   -5.4360  -43.2800    5.1310 H   0  0  0  0  0  0  0  0  0  0  0  0
   -3.8170  -44.5620    5.7720 C   0  0  0  0  0  0  0  0  0  0  0  0
   -3.2190  -44.3380    4.8970 H   0  0  0  0  0  0  0  0  0  0  0  0
   -6.2030  -45.3560    9.1850 C   0  0  0  0  0  0  0  0  0  0  0  0
   -7.1370  -44.8070    9.2980 H   0  0  0  0  0  0  0  0  0  0  0  0
   -5.8280  -46.2960   10.1080 C   0  0  0  0  0  0  0  0  0  0  0  0
   -6.4530  -46.4980   10.9750 H   0  0  0  0  0  0  0  0  0  0  0  0
   -4.6340  -47.0450    9.9180 C   0  0  0  0  0  0  0  0  0  0  0  0
   -4.3970  -47.8380   10.6270 H   0  0  0  0  0  0  0  0  0  0  0  0
   -3.8230  -46.7940    8.8390 C   0  0  0  0  0  0  0  0  0  0  0  0
   -2.9460  -47.4230    8.6910 H   0  0  0  0  0  0  0  0  0  0  0  0
  1  2  1  0  0  0  0
  2  3  2  0  0  0  0
  4  2  1  0  0  0  0
  4  5  1  0  0  0  0
  6  7  1  0  0  0  0
  6  5  1  0  0  0  0
  7  8  1  0  0  0  0
  9 10  1  0  0  0  0
  9  7  2  0  0  0  0
 11  9  1  0  0  0  0
 12 11  1  0  0  0  0
 13 11  2  0  0  0  0
 13 15  1  0  0  0  0
 14 13  1  0  0  0  0
 15  6  2  0  0  0  0
 16 15  1  0  0  0  0
 16  4  2  0  0  0  0
 17 16  1  0  0  0  0
 17 20  1  0  0  0  0
 18 17  1  0  0  0  0
 19 17  1  0  0  0  0
 20 22  1  0  0  0  0
 20 23  1  0  0  0  0
 21 20  1  0  0  0  0
 23 25  1  0  0  0  0
 23 24  1  0  0  0  0
 26 23  1  0  0  0  0
 26 27  1  0  0  0  0
 27 34  1  0  0  0  0
 28 27  2  0  0  0  0
 28 29  1  0  0  0  0
 29 30  2  0  0  0  0
 30 32  1  0  0  0  0
 30 31  1  0  0  0  0
 32 33  1  0  0  0  0
 34 35  1  0  0  0  0
 34 32  2  0  0  0  0
 36 29  1  0  0  0  0
 36 37  1  0  0  0  0
 38 36  2  0  0  0  0
 39 38  1  0  0  0  0
 40 42  2  0  0  0  0
 40 38  1  0  0  0  0
 41 40  1  0  0  0  0
 42 28  1  0  0  0  0
 43 42  1  0  0  0  0
M  CHG  1   1  -1
M  END
$$$$
