p38a_2u
 OpenBabel02232411163D
Structure written by MMmdl.
 64 68  0  0  0  0  0  0  0  0999 V2000
   38.2550   36.5240   17.1810 C   0  0  0  0  0  0  0  0  0  0  0  0
   34.5740   35.1320   21.2780 C   0  0  0  0  0  0  0  0  0  0  0  0
   37.4570   36.0850   18.2340 C   0  0  0  0  0  0  0  0  0  0  0  0
   34.0130   39.2230   23.8020 C   0  0  0  0  0  0  0  0  0  0  0  0
   34.6240   38.0120   21.3990 C   0  0  0  0  0  0  0  0  0  0  0  0
   34.9900   37.3540   20.1750 C   0  0  0  0  0  0  0  0  0  0  0  0
   37.6170   36.6950   15.9450 C   0  0  0  0  0  0  0  0  0  0  0  0
   36.2630   36.4250   15.7320 C   0  0  0  0  0  0  0  0  0  0  0  0
   35.4850   35.9730   16.8040 C   0  0  0  0  0  0  0  0  0  0  0  0
   34.3190   37.2400   22.5580 C   0  0  0  0  0  0  0  0  0  0  0  0
   34.5690   39.4260   21.5340 C   0  0  0  0  0  0  0  0  0  0  0  0
   34.9970   36.0020   20.1440 C   0  0  0  0  0  0  0  0  0  0  0  0
   36.0880   35.7960   18.0520 C   0  0  0  0  0  0  0  0  0  0  0  0
   37.9810   35.9350   19.4430 F   0  0  0  0  0  0  0  0  0  0  0  0
   35.3480   35.1830   19.0730 O   0  0  0  0  0  0  0  0  0  0  0  0
   34.2820   40.0450   22.6890 N   0  0  0  0  0  0  0  0  0  0  0  0
   34.4610   33.9280   21.2080 O   0  0  0  0  0  0  0  0  0  0  0  0
   34.3060   35.8310   22.5080 N   0  0  0  0  0  0  0  0  0  0  0  0
   34.0320   37.8440   23.7560 N   0  0  0  0  0  0  0  0  0  0  0  0
   33.6420   39.8330   24.9800 N   0  0  0  0  0  0  0  0  0  0  0  0
   39.3140   36.7610   17.3210 H   0  0  0  0  0  0  0  0  0  0  0  0
   35.2620   37.9720   19.3160 H   0  0  0  0  0  0  0  0  0  0  0  0
   35.8010   36.5750   14.7540 H   0  0  0  0  0  0  0  0  0  0  0  0
   34.4170   35.7780   16.6610 H   0  0  0  0  0  0  0  0  0  0  0  0
   34.7670   40.0670   20.6580 H   0  0  0  0  0  0  0  0  0  0  0  0
   33.7490   40.8610   25.0800 H   0  0  0  0  0  0  0  0  0  0  0  0
   38.3310   37.1790   14.9310 F   0  0  0  0  0  0  0  0  0  0  0  0
   32.4020   39.0750   28.5090 C   0  0  0  0  0  0  0  0  0  0  0  0
   32.4350   39.7320   27.1240 C   0  0  0  0  0  0  0  0  0  0  0  0
   33.5440   39.0810   26.2680 C   0  0  0  0  0  0  0  0  0  0  0  0
   34.8970   39.1170   27.0140 C   0  0  0  0  0  0  0  0  0  0  0  0
   34.7400   38.5120   28.4150 C   0  0  0  0  0  0  0  0  0  0  0  0
   33.6890   39.1660   29.1640 O   0  0  0  0  0  0  0  0  0  0  0  0
   32.1090   38.0010   28.4340 H   0  0  0  0  0  0  0  0  0  0  0  0
   31.7380   39.6330   29.2070 H   0  0  0  0  0  0  0  0  0  0  0  0
   32.6310   40.8240   27.2320 H   0  0  0  0  0  0  0  0  0  0  0  0
   31.4480   39.5950   26.6200 H   0  0  0  0  0  0  0  0  0  0  0  0
   33.2620   38.0130   26.0540 H   0  0  0  0  0  0  0  0  0  0  0  0
   35.6530   38.5250   26.4450 H   0  0  0  0  0  0  0  0  0  0  0  0
   35.2560   40.1710   27.0940 H   0  0  0  0  0  0  0  0  0  0  0  0
   34.5110   37.4220   28.3520 H   0  0  0  0  0  0  0  0  0  0  0  0
   35.6390   38.7060   29.0430 H   0  0  0  0  0  0  0  0  0  0  0  0
   34.6720   33.2490   25.3710 C   0  0  0  0  0  0  0  0  0  0  0  0
   35.0240   34.0060   24.0740 C   0  0  0  0  0  0  0  0  0  0  0  0
   33.9460   35.0610   23.7630 C   0  0  0  0  0  0  0  0  0  0  0  0
   32.5350   34.4510   23.6360 C   0  0  0  0  0  0  0  0  0  0  0  0
   32.4720   33.0160   24.1990 C   0  0  0  0  0  0  0  0  0  0  0  0
   34.9450   33.9020   26.2430 H   0  0  0  0  0  0  0  0  0  0  0  0
   35.2850   32.3100   25.4040 H   0  0  0  0  0  0  0  0  0  0  0  0
   35.1070   33.2820   23.2280 H   0  0  0  0  0  0  0  0  0  0  0  0
   36.0050   34.5170   24.2180 H   0  0  0  0  0  0  0  0  0  0  0  0
   33.9370   35.7890   24.6280 H   0  0  0  0  0  0  0  0  0  0  0  0
   31.8150   35.1110   24.1800 H   0  0  0  0  0  0  0  0  0  0  0  0
   32.2020   34.4170   22.5710 H   0  0  0  0  0  0  0  0  0  0  0  0
   31.3980   32.7390   24.3680 H   0  0  0  0  0  0  0  0  0  0  0  0
   32.9080   32.3090   23.4420 H   0  0  0  0  0  0  0  0  0  0  0  0
   33.2410   32.8270   25.4560 N   0  0  0  0  0  0  0  0  0  0  0  0
   32.4180   33.0230   26.9570 S   0  0  0  0  0  0  0  0  0  0  0  0
   33.0690   32.1160   27.9220 O   0  0  0  0  0  0  0  0  0  0  0  0
   31.0080   32.6500   26.7300 O   0  0  0  0  0  0  0  0  0  0  0  0
   32.5780   34.6760   27.4510 C   0  0  0  0  0  0  0  0  0  0  0  0
   33.6040   34.9310   27.8290 H   0  0  0  0  0  0  0  0  0  0  0  0
   32.3420   35.4060   26.6330 H   0  0  0  0  0  0  0  0  0  0  0  0
   31.8770   34.9330   28.2920 H   0  0  0  0  0  0  0  0  0  0  0  0
  1  3  2  0  0  0  0
  1  7  1  0  0  0  0
  1 21  1  0  0  0  0
  2 12  1  0  0  0  0
  2 17  2  0  0  0  0
  2 18  1  0  0  0  0
  3 13  1  0  0  0  0
  3 14  1  0  0  0  0
  4 16  2  0  0  0  0
  4 19  1  0  0  0  0
  4 20  1  0  0  0  0
  5  6  1  0  0  0  0
  5 10  1  0  0  0  0
  5 11  2  0  0  0  0
  6 12  2  0  0  0  0
  6 22  1  0  0  0  0
  7  8  2  0  0  0  0
  7 27  1  0  0  0  0
  8  9  1  0  0  0  0
  8 23  1  0  0  0  0
  9 13  2  0  0  0  0
  9 24  1  0  0  0  0
 10 18  1  0  0  0  0
 10 19  2  0  0  0  0
 11 16  1  0  0  0  0
 11 25  1  0  0  0  0
 12 15  1  0  0  0  0
 13 15  1  0  0  0  0
 18 45  1  0  0  0  0
 20 26  1  0  0  0  0
 20 30  1  0  0  0  0
 28 29  1  0  0  0  0
 28 33  1  0  0  0  0
 28 34  1  0  0  0  0
 28 35  1  0  0  0  0
 29 30  1  0  0  0  0
 29 36  1  0  0  0  0
 29 37  1  0  0  0  0
 30 31  1  0  0  0  0
 30 38  1  0  0  0  0
 31 32  1  0  0  0  0
 31 39  1  0  0  0  0
 31 40  1  0  0  0  0
 32 33  1  0  0  0  0
 32 41  1  0  0  0  0
 32 42  1  0  0  0  0
 43 44  1  0  0  0  0
 43 48  1  0  0  0  0
 43 49  1  0  0  0  0
 43 57  1  0  0  0  0
 44 45  1  0  0  0  0
 44 50  1  0  0  0  0
 44 51  1  0  0  0  0
 45 46  1  0  0  0  0
 45 52  1  0  0  0  0
 46 47  1  0  0  0  0
 46 53  1  0  0  0  0
 46 54  1  0  0  0  0
 47 55  1  0  0  0  0
 47 56  1  0  0  0  0
 47 57  1  0  0  0  0
 57 58  1  0  0  0  0
 58 59  2  0  0  0  0
 58 60  2  0  0  0  0
 58 61  1  0  0  0  0
 61 62  1  0  0  0  0
 61 63  1  0  0  0  0
 61 64  1  0  0  0  0
M  END
$$$$
