18639-1
 OpenBabel02232411163D
Structure written by MMmdl.
 48 49  0  0  0  0  0  0  0  0999 V2000
   23.2060   10.7790   29.0630 C   0  0  0  0  0  0  0  0  0  0  0  0
   23.4870   11.0300   30.5300 C   0  0  0  0  0  0  0  0  0  0  0  0
   22.2240   11.1450   31.2900 O   0  0  0  0  0  0  0  0  0  0  0  0
   21.5620   10.0180   31.6370 C   0  0  0  0  0  0  0  0  0  0  0  0
   22.0280    8.8190   31.2180 N   0  0  0  0  0  0  0  0  0  0  0  0
   21.2810    7.6960   31.5310 C   0  0  0  0  0  0  0  0  0  0  0  0
   20.1140    7.7530   32.2850 C   0  0  0  0  0  0  0  0  0  0  0  0
   19.6460    9.0130   32.7450 C   0  0  0  0  0  0  0  0  0  0  0  0
   18.4930    9.0730   33.4840 N   0  0  0  0  0  0  0  0  0  0  0  0
   20.3790   10.1980   32.4130 C   0  0  0  0  0  0  0  0  0  0  0  0
   19.9870   11.5050   32.7750 C   0  0  0  0  0  0  0  0  0  0  0  0
   19.7150   12.6030   33.0330 N   0  0  0  0  0  0  0  0  0  0  0  0
   21.8560    6.5270   30.9800 N   0  0  0  0  0  0  0  0  0  0  0  0
   21.2470    5.2600   30.8750 C   0  0  0  0  0  0  0  0  0  0  0  0
   20.1480    5.0190   31.3270 O   0  0  0  0  0  0  0  0  0  0  0  0
   22.0700    4.2590   30.0720 C   0  0  0  0  0  0  0  0  0  0  0  0
   23.4360    3.9860   30.6300 C   0  0  0  0  0  0  0  0  0  0  0  0
   24.5350    4.8450   30.3100 C   0  0  0  0  0  0  0  0  0  0  0  0
   24.1800    5.8910   29.4670 O   0  0  0  0  0  0  0  0  0  0  0  0
   25.1360    6.9770   29.3040 C   0  0  0  0  0  0  0  0  0  0  0  0
   25.8130    4.6040   30.7880 C   0  0  0  0  0  0  0  0  0  0  0  0
   26.0400    3.4910   31.6250 C   0  0  0  0  0  0  0  0  0  0  0  0
   27.3910    3.2360   32.1330 N   0  3  0  0  0  0  0  0  0  0  0  0
   27.5200    2.4520   33.0610 O   0  5  0  0  0  0  0  0  0  0  0  0
   28.3340    3.8130   31.6040 O   0  0  0  0  0  0  0  0  0  0  0  0
   24.9670    2.6270   31.9450 C   0  0  0  0  0  0  0  0  0  0  0  0
   23.6730    2.8820   31.4320 C   0  0  0  0  0  0  0  0  0  0  0  0
   25.3120    1.5900   32.7590 O   0  0  0  0  0  0  0  0  0  0  0  0
   24.3120    0.5560   33.0010 C   0  0  0  0  0  0  0  0  0  0  0  0
   24.1650   10.8350   28.4910 H   0  0  0  0  0  0  0  0  0  0  0  0
   22.5090   11.5400   28.6470 H   0  0  0  0  0  0  0  0  0  0  0  0
   22.7660    9.7670   28.9040 H   0  0  0  0  0  0  0  0  0  0  0  0
   23.8990   12.0520   30.7120 H   0  0  0  0  0  0  0  0  0  0  0  0
   24.1210   10.2320   30.9800 H   0  0  0  0  0  0  0  0  0  0  0  0
   19.5430    6.8500   32.5100 H   0  0  0  0  0  0  0  0  0  0  0  0
   17.9850    8.2080   33.7520 H   0  0  0  0  0  0  0  0  0  0  0  0
   18.1030    9.9640   33.7910 H   0  0  0  0  0  0  0  0  0  0  0  0
   22.7790    6.6720   30.4990 H   0  0  0  0  0  0  0  0  0  0  0  0
   21.4940    3.2970   30.0100 H   0  0  0  0  0  0  0  0  0  0  0  0
   22.1810    4.6750   29.0310 H   0  0  0  0  0  0  0  0  0  0  0  0
   25.4520    7.3730   30.2940 H   0  0  0  0  0  0  0  0  0  0  0  0
   25.9920    6.6190   28.6940 H   0  0  0  0  0  0  0  0  0  0  0  0
   24.5210    7.7250   28.7510 H   0  0  0  0  0  0  0  0  0  0  0  0
   26.6540    5.2540   30.5200 H   0  0  0  0  0  0  0  0  0  0  0  0
   22.8560    2.1960   31.6670 H   0  0  0  0  0  0  0  0  0  0  0  0
   24.8950   -0.1760   33.6090 H   0  0  0  0  0  0  0  0  0  0  0  0
   23.4640    0.9730   33.5840 H   0  0  0  0  0  0  0  0  0  0  0  0
   23.9890    0.1050   32.0370 H   0  0  0  0  0  0  0  0  0  0  0  0
  1  2  1  0  0  0  0
  1 30  1  0  0  0  0
  1 31  1  0  0  0  0
  1 32  1  0  0  0  0
  2  3  1  0  0  0  0
  2 33  1  0  0  0  0
  2 34  1  0  0  0  0
  3  4  1  0  0  0  0
  4 10  2  0  0  0  0
  4  5  1  0  0  0  0
  5  6  2  0  0  0  0
  6  7  1  0  0  0  0
  6 13  1  0  0  0  0
  7  8  2  0  0  0  0
  7 35  1  0  0  0  0
  8  9  1  0  0  0  0
  8 10  1  0  0  0  0
  9 36  1  0  0  0  0
  9 37  1  0  0  0  0
 10 11  1  0  0  0  0
 11 12  3  0  0  0  0
 13 14  1  0  0  0  0
 13 38  1  0  0  0  0
 14 15  2  0  0  0  0
 14 16  1  0  0  0  0
 16 17  1  0  0  0  0
 16 39  1  0  0  0  0
 16 40  1  0  0  0  0
 17 27  2  0  0  0  0
 17 18  1  0  0  0  0
 18 19  1  0  0  0  0
 18 21  2  0  0  0  0
 19 20  1  0  0  0  0
 20 41  1  0  0  0  0
 20 42  1  0  0  0  0
 20 43  1  0  0  0  0
 21 22  1  0  0  0  0
 21 44  1  0  0  0  0
 22 23  1  0  0  0  0
 22 26  2  0  0  0  0
 23 24  1  0  0  0  0
 23 25  2  0  0  0  0
 26 27  1  0  0  0  0
 26 28  1  0  0  0  0
 27 45  1  0  0  0  0
 28 29  1  0  0  0  0
 29 46  1  0  0  0  0
 29 47  1  0  0  0  0
 29 48  1  0  0  0  0
M  CHG  2  23   1  24  -1
M  END
$$$$
