30
                    3D
 Schrodinger Suite 2022-3.
 41 43  0  0  1  0  0  0  0  0999 V2000
    3.3450  -48.2560    7.1930 O   0  0  0  0  0  0  0  0  0  0  0  0
    2.9410  -49.1720    6.4640 C   0  0  0  0  0  0  0  0  0  0  0  0
    3.6350  -49.9260    5.7560 O   0  5  0  0  0  0  0  0  0  0  0  0
    1.4290  -49.4690    6.4270 C   0  0  0  0  0  0  0  0  0  0  0  0
   -0.4110  -50.8220    6.6060 C   0  0  0  0  0  0  0  0  0  0  0  0
   -1.3120  -51.8790    6.8200 C   0  0  0  0  0  0  0  0  0  0  0  0
   -2.6510  -51.6420    6.5440 C   0  0  0  0  0  0  0  0  0  0  0  0
   -3.0900  -50.3850    6.0650 C   0  0  0  0  0  0  0  0  0  0  0  0
   -2.2040  -49.3370    5.8540 C   0  0  0  0  0  0  0  0  0  0  0  0
   -0.8400  -49.5320    6.1250 C   0  0  0  0  0  0  0  0  0  0  0  0
    0.3400  -48.6970    6.0360 C   0  0  0  0  0  0  0  0  0  0  0  0
    0.3180  -47.2780    5.5940 C   0  0  0  0  0  0  0  0  0  0  0  0
    0.2500  -46.2800    6.7640 C   0  0  0  0  0  0  0  0  0  0  0  0
   -1.0630  -46.3210    7.5430 C   0  0  0  0  0  0  0  0  0  0  0  0
   -2.0300  -45.6760    6.6350 O   0  0  0  0  0  0  0  0  0  0  0  0
   -3.3040  -45.4720    7.0740 C   0  0  0  0  0  0  0  0  0  0  0  0
   -4.1070  -44.7660    6.1510 C   0  0  0  0  0  0  0  0  0  0  0  0
   -5.4450  -44.5170    6.4660 C   0  0  0  0  0  0  0  0  0  0  0  0
   -5.9620  -44.9270    7.7110 C   0  0  0  0  0  0  0  0  0  0  0  0
   -5.1510  -45.6180    8.6110 C   0  0  0  0  0  0  0  0  0  0  0  0
   -3.8190  -45.9100    8.3070 C   0  0  0  0  0  0  0  0  0  0  0  0
   -0.9800  -52.8480    7.1900 H   0  0  0  0  0  0  0  0  0  0  0  0
   -3.3860  -52.4330    6.6970 H   0  0  0  0  0  0  0  0  0  0  0  0
   -4.1520  -50.2480    5.8600 H   0  0  0  0  0  0  0  0  0  0  0  0
   -2.5720  -48.3780    5.4860 H   0  0  0  0  0  0  0  0  0  0  0  0
   -0.5830  -47.1150    4.9460 H   0  0  0  0  0  0  0  0  0  0  0  0
    1.2280  -47.0410    4.9910 H   0  0  0  0  0  0  0  0  0  0  0  0
    0.3700  -45.2460    6.3620 H   0  0  0  0  0  0  0  0  0  0  0  0
    1.0780  -46.5000    7.4820 H   0  0  0  0  0  0  0  0  0  0  0  0
   -1.0170  -45.6990    8.4620 H   0  0  0  0  0  0  0  0  0  0  0  0
   -1.4300  -47.3530    7.7300 H   0  0  0  0  0  0  0  0  0  0  0  0
   -3.6930  -44.4540    5.1960 H   0  0  0  0  0  0  0  0  0  0  0  0
   -3.2280  -46.4790    9.0180 H   0  0  0  0  0  0  0  0  0  0  0  0
    0.9800  -50.7550    6.7890 N   0  0  0  0  0  0  0  0  0  0  0  0
    1.5400  -51.5410    7.0980 H   0  0  0  0  0  0  0  0  0  0  0  0
   -5.5720  -45.9450    9.5650 H   0  0  0  0  0  0  0  0  0  0  0  0
   -7.0010  -44.7250    7.9610 H   0  0  0  0  0  0  0  0  0  0  0  0
   -6.3480  -43.8710    5.4610 C   0  0  0  0  0  0  0  0  0  0  0  0
   -7.1530  -43.2870    5.9620 H   0  0  0  0  0  0  0  0  0  0  0  0
   -5.7810  -43.1960    4.7830 H   0  0  0  0  0  0  0  0  0  0  0  0
   -6.8310  -44.6730    4.8490 H   0  0  0  0  0  0  0  0  0  0  0  0
  1  2  2  0  0  0  0
  2  3  1  0  0  0  0
  2  4  1  0  0  0  0
  4 11  2  0  0  0  0
  4 34  1  0  0  0  0
  5  6  1  0  0  0  0
  5 10  2  0  0  0  0
  5 34  1  0  0  0  0
  6  7  2  0  0  0  0
  6 22  1  0  0  0  0
  7  8  1  0  0  0  0
  7 23  1  0  0  0  0
  8  9  2  0  0  0  0
  8 24  1  0  0  0  0
  9 10  1  0  0  0  0
  9 25  1  0  0  0  0
 10 11  1  0  0  0  0
 11 12  1  0  0  0  0
 12 26  1  0  0  0  0
 12 27  1  0  0  0  0
 12 13  1  0  0  0  0
 13 14  1  0  0  0  0
 13 28  1  0  0  0  0
 13 29  1  0  0  0  0
 14 15  1  0  0  0  0
 14 30  1  0  0  0  0
 14 31  1  0  0  0  0
 15 16  1  0  0  0  0
 16 17  1  0  0  0  0
 16 21  2  0  0  0  0
 17 18  2  0  0  0  0
 17 32  1  0  0  0  0
 18 19  1  0  0  0  0
 18 38  1  0  0  0  0
 19 20  2  0  0  0  0
 19 37  1  0  0  0  0
 20 21  1  0  0  0  0
 20 36  1  0  0  0  0
 21 33  1  0  0  0  0
 34 35  1  0  0  0  0
 38 39  1  0  0  0  0
 38 40  1  0  0  0  0
 38 41  1  0  0  0  0
M  CHG  1   3  -1
M  END
$$$$
