p38a_3flw
 OpenBabel02232411163D
Structure written by MMmdl.
 49 51  0  0  0  0  0  0  0  0999 V2000
   38.2670   36.5180   17.1920 C   0  0  0  0  0  0  0  0  0  0  0  0
   37.6310   36.6660   15.9520 C   0  0  0  0  0  0  0  0  0  0  0  0
   33.8590   39.6800   27.5600 C   0  0  0  0  0  0  0  0  0  0  0  0
   35.2820   39.1680   27.8120 C   0  0  0  0  0  0  0  0  0  0  0  0
   31.7730   39.4990   26.1550 C   0  0  0  0  0  0  0  0  0  0  0  0
   34.3060   35.0070   23.8110 C   0  0  0  0  0  0  0  0  0  0  0  0
   37.9960   35.9470   19.4580 F   0  0  0  0  0  0  0  0  0  0  0  0
   37.4720   36.0760   18.2460 C   0  0  0  0  0  0  0  0  0  0  0  0
   38.3390   37.1570   14.9370 F   0  0  0  0  0  0  0  0  0  0  0  0
   36.2850   36.3640   15.7360 C   0  0  0  0  0  0  0  0  0  0  0  0
   35.5090   35.9130   16.8090 C   0  0  0  0  0  0  0  0  0  0  0  0
   36.1070   35.7630   18.0630 C   0  0  0  0  0  0  0  0  0  0  0  0
   35.3630   35.1600   19.0850 O   0  0  0  0  0  0  0  0  0  0  0  0
   35.0570   35.9750   20.1750 C   0  0  0  0  0  0  0  0  0  0  0  0
   35.0640   37.3260   20.2170 C   0  0  0  0  0  0  0  0  0  0  0  0
   34.7540   37.9780   21.4610 C   0  0  0  0  0  0  0  0  0  0  0  0
   34.6730   39.3890   21.5950 C   0  0  0  0  0  0  0  0  0  0  0  0
   34.4060   39.9940   22.7630 N   0  0  0  0  0  0  0  0  0  0  0  0
   34.6630   35.1060   21.3170 C   0  0  0  0  0  0  0  0  0  0  0  0
   34.4700   33.9120   21.2610 O   0  0  0  0  0  0  0  0  0  0  0  0
   34.5150   35.8010   22.5680 N   0  0  0  0  0  0  0  0  0  0  0  0
   34.5230   37.2040   22.6390 C   0  0  0  0  0  0  0  0  0  0  0  0
   34.2910   37.7960   23.8550 N   0  0  0  0  0  0  0  0  0  0  0  0
   34.2210   39.1710   23.8890 C   0  0  0  0  0  0  0  0  0  0  0  0
   34.0330   39.8100   25.1100 N   0  0  0  0  0  0  0  0  0  0  0  0
   33.2820   39.1550   26.2230 C   0  0  0  0  0  0  0  0  0  0  0  0
   31.0570   39.0900   24.8640 C   0  0  0  0  0  0  0  0  0  0  0  0
   31.1560   37.6910   24.5650 O   0  0  0  0  0  0  0  0  0  0  0  0
   35.8360   39.7430   29.0100 O   0  0  0  0  0  0  0  0  0  0  0  0
   39.3210   36.7750   17.3320 H   0  0  0  0  0  0  0  0  0  0  0  0
   33.1860   39.3430   28.3870 H   0  0  0  0  0  0  0  0  0  0  0  0
   33.8550   40.7990   27.5590 H   0  0  0  0  0  0  0  0  0  0  0  0
   35.2870   38.0590   27.9150 H   0  0  0  0  0  0  0  0  0  0  0  0
   35.9850   39.5210   27.0250 H   0  0  0  0  0  0  0  0  0  0  0  0
   31.2730   39.0090   27.0280 H   0  0  0  0  0  0  0  0  0  0  0  0
   31.6560   40.6060   26.2730 H   0  0  0  0  0  0  0  0  0  0  0  0
   33.3110   35.2540   24.2710 H   0  0  0  0  0  0  0  0  0  0  0  0
   34.3390   33.9100   23.5780 H   0  0  0  0  0  0  0  0  0  0  0  0
   35.1100   35.2490   24.5580 H   0  0  0  0  0  0  0  0  0  0  0  0
   35.8260   36.4930   14.7530 H   0  0  0  0  0  0  0  0  0  0  0  0
   34.4460   35.6960   16.6600 H   0  0  0  0  0  0  0  0  0  0  0  0
   35.3060   37.9480   19.3520 H   0  0  0  0  0  0  0  0  0  0  0  0
   34.8110   40.0360   20.7120 H   0  0  0  0  0  0  0  0  0  0  0  0
   33.9150   40.8460   25.1060 H   0  0  0  0  0  0  0  0  0  0  0  0
   33.4120   38.0410   26.1710 H   0  0  0  0  0  0  0  0  0  0  0  0
   29.9740   39.3460   24.9470 H   0  0  0  0  0  0  0  0  0  0  0  0
   31.5190   39.5650   23.9700 H   0  0  0  0  0  0  0  0  0  0  0  0
   30.9210   37.1680   25.3680 H   0  0  0  0  0  0  0  0  0  0  0  0
   35.2200   39.5810   29.7680 H   0  0  0  0  0  0  0  0  0  0  0  0
  1  2  2  0  0  0  0
  1  8  1  0  0  0  0
  1 30  1  0  0  0  0
  2  9  1  0  0  0  0
  2 10  1  0  0  0  0
  3  4  1  0  0  0  0
  3 26  1  0  0  0  0
  3 31  1  0  0  0  0
  3 32  1  0  0  0  0
  4 29  1  0  0  0  0
  4 33  1  0  0  0  0
  4 34  1  0  0  0  0
  5 26  1  0  0  0  0
  5 27  1  0  0  0  0
  5 35  1  0  0  0  0
  5 36  1  0  0  0  0
  6 21  1  0  0  0  0
  6 37  1  0  0  0  0
  6 38  1  0  0  0  0
  6 39  1  0  0  0  0
  7  8  1  0  0  0  0
  8 12  2  0  0  0  0
 10 11  2  0  0  0  0
 10 40  1  0  0  0  0
 11 12  1  0  0  0  0
 11 41  1  0  0  0  0
 12 13  1  0  0  0  0
 13 14  1  0  0  0  0
 14 15  2  0  0  0  0
 14 19  1  0  0  0  0
 15 16  1  0  0  0  0
 15 42  1  0  0  0  0
 16 17  2  0  0  0  0
 16 22  1  0  0  0  0
 17 18  1  0  0  0  0
 17 43  1  0  0  0  0
 18 24  2  0  0  0  0
 19 20  2  0  0  0  0
 19 21  1  0  0  0  0
 21 22  1  0  0  0  0
 22 23  2  0  0  0  0
 23 24  1  0  0  0  0
 24 25  1  0  0  0  0
 25 26  1  0  0  0  0
 25 44  1  0  0  0  0
 26 45  1  0  0  0  0
 27 28  1  0  0  0  0
 27 46  1  0  0  0  0
 27 47  1  0  0  0  0
 28 48  1  0  0  0  0
 29 49  1  0  0  0  0
M  END
$$$$
