18627-1
 OpenBabel02232411163D
Structure written by MMmdl.
 38 39  0  0  0  0  0  0  0  0999 V2000
   23.7790   12.6550   30.3430 C   0  0  0  0  0  0  0  0  0  0  0  0
   23.3420   11.2060   30.4310 C   0  0  0  0  0  0  0  0  0  0  0  0
   22.1050   11.2810   31.2540 O   0  0  0  0  0  0  0  0  0  0  0  0
   21.4870   10.1340   31.6000 C   0  0  0  0  0  0  0  0  0  0  0  0
   21.9800    8.9500   31.1640 N   0  0  0  0  0  0  0  0  0  0  0  0
   21.2750    7.8040   31.5010 C   0  0  0  0  0  0  0  0  0  0  0  0
   20.1240    7.8290   32.2820 C   0  0  0  0  0  0  0  0  0  0  0  0
   19.6170    9.0760   32.7370 C   0  0  0  0  0  0  0  0  0  0  0  0
   18.4710    9.1080   33.4890 N   0  0  0  0  0  0  0  0  0  0  0  0
   20.3060   10.2800   32.3870 C   0  0  0  0  0  0  0  0  0  0  0  0
   19.8730   11.5770   32.7370 C   0  0  0  0  0  0  0  0  0  0  0  0
   19.5670   12.6690   32.9810 N   0  0  0  0  0  0  0  0  0  0  0  0
   21.8660    6.6410   30.9470 N   0  0  0  0  0  0  0  0  0  0  0  0
   21.3520    5.3240   30.9900 C   0  0  0  0  0  0  0  0  0  0  0  0
   20.2910    5.0580   31.5170 O   0  0  0  0  0  0  0  0  0  0  0  0
   22.1930    4.2910   30.2550 C   0  0  0  0  0  0  0  0  0  0  0  0
   23.6750    4.4030   30.4850 C   0  0  0  0  0  0  0  0  0  0  0  0
   24.4730    5.1920   29.6400 C   0  0  0  0  0  0  0  0  0  0  0  0
   25.8460    5.3140   29.8700 C   0  0  0  0  0  0  0  0  0  0  0  0
   26.4130    4.6270   30.9460 C   0  0  0  0  0  0  0  0  0  0  0  0
   28.1030    4.7880   31.2420 Cl  0  0  0  0  0  0  0  0  0  0  0  0
   25.6470    3.8140   31.7840 C   0  0  0  0  0  0  0  0  0  0  0  0
   24.2740    3.7070   31.5480 C   0  0  0  0  0  0  0  0  0  0  0  0
   24.6750   12.7190   29.6750 H   0  0  0  0  0  0  0  0  0  0  0  0
   22.9730   13.2900   29.9030 H   0  0  0  0  0  0  0  0  0  0  0  0
   24.0500   13.0610   31.3430 H   0  0  0  0  0  0  0  0  0  0  0  0
   23.0580   10.7840   29.4410 H   0  0  0  0  0  0  0  0  0  0  0  0
   24.0790   10.5670   30.9660 H   0  0  0  0  0  0  0  0  0  0  0  0
   19.5930    6.9090   32.5350 H   0  0  0  0  0  0  0  0  0  0  0  0
   17.9830    8.2320   33.7590 H   0  0  0  0  0  0  0  0  0  0  0  0
   18.0570    9.9900   33.7900 H   0  0  0  0  0  0  0  0  0  0  0  0
   22.7540    6.8050   30.4350 H   0  0  0  0  0  0  0  0  0  0  0  0
   21.8550    3.2670   30.5810 H   0  0  0  0  0  0  0  0  0  0  0  0
   21.9610    4.3960   29.1630 H   0  0  0  0  0  0  0  0  0  0  0  0
   24.0350    5.7270   28.7950 H   0  0  0  0  0  0  0  0  0  0  0  0
   26.4590    5.9430   29.2160 H   0  0  0  0  0  0  0  0  0  0  0  0
   26.1080    3.2640   32.6110 H   0  0  0  0  0  0  0  0  0  0  0  0
   23.6740    3.0630   32.1970 H   0  0  0  0  0  0  0  0  0  0  0  0
  1  2  1  0  0  0  0
  1 24  1  0  0  0  0
  1 25  1  0  0  0  0
  1 26  1  0  0  0  0
  2  3  1  0  0  0  0
  2 27  1  0  0  0  0
  2 28  1  0  0  0  0
  3  4  1  0  0  0  0
  4 10  2  0  0  0  0
  4  5  1  0  0  0  0
  5  6  2  0  0  0  0
  6  7  1  0  0  0  0
  6 13  1  0  0  0  0
  7  8  2  0  0  0  0
  7 29  1  0  0  0  0
  8  9  1  0  0  0  0
  8 10  1  0  0  0  0
  9 30  1  0  0  0  0
  9 31  1  0  0  0  0
 10 11  1  0  0  0  0
 11 12  3  0  0  0  0
 13 14  1  0  0  0  0
 13 32  1  0  0  0  0
 14 15  2  0  0  0  0
 14 16  1  0  0  0  0
 16 17  1  0  0  0  0
 16 33  1  0  0  0  0
 16 34  1  0  0  0  0
 17 23  2  0  0  0  0
 17 18  1  0  0  0  0
 18 19  2  0  0  0  0
 18 35  1  0  0  0  0
 19 20  1  0  0  0  0
 19 36  1  0  0  0  0
 20 21  1  0  0  0  0
 20 22  2  0  0  0  0
 22 23  1  0  0  0  0
 22 37  1  0  0  0  0
 23 38  1  0  0  0  0
M  END
$$$$
