ejm_42
 OpenBabel02232411173D
Structure written by MMmdl.
 35 36  0  0  0  0  0  0  0  0999 V2000
   -1.5910   21.5290  -27.5730 C   0  0  0  0  0  0  0  0  0  0  0  0
   -2.8710   21.0330  -27.8330 C   0  0  0  0  0  0  0  0  0  0  0  0
   -3.6410   21.6100  -28.8450 C   0  0  0  0  0  0  0  0  0  0  0  0
   -3.1640   22.6870  -29.6080 C   0  0  0  0  0  0  0  0  0  0  0  0
   -1.8820   23.1690  -29.3160 C   0  0  0  0  0  0  0  0  0  0  0  0
   -1.0910   22.6030  -28.3130 C   0  0  0  0  0  0  0  0  0  0  0  0
   -1.2360   24.4940  -30.1900 Cl  0  0  0  0  0  0  0  0  0  0  0  0
   -4.0160   23.2210  -30.7230 C   0  0  0  0  0  0  0  0  0  0  0  0
   -4.4330   22.5140  -31.6150 O   0  0  0  0  0  0  0  0  0  0  0  0
   -4.3050   24.5970  -30.6090 N   0  0  0  0  0  0  0  0  0  0  0  0
   -5.1400   25.3610  -31.4730 C   0  0  0  0  0  0  0  0  0  0  0  0
   -5.8090   24.8160  -32.5800 C   0  0  0  0  0  0  0  0  0  0  0  0
   -6.6570   25.6510  -33.3220 C   0  0  0  0  0  0  0  0  0  0  0  0
   -6.8530   26.9630  -33.0370 N   0  0  0  0  0  0  0  0  0  0  0  0
   -6.1710   27.4910  -31.9570 C   0  0  0  0  0  0  0  0  0  0  0  0
   -5.3080   26.7260  -31.1590 C   0  0  0  0  0  0  0  0  0  0  0  0
   -6.4420   28.8670  -31.7140 N   0  0  0  0  0  0  0  0  0  0  0  0
   -5.7000   29.7400  -30.8690 C   0  0  0  0  0  0  0  0  0  0  0  0
   -4.7770   29.3210  -30.1980 O   0  0  0  0  0  0  0  0  0  0  0  0
   -6.1600   31.1810  -30.9200 C   0  0  0  0  0  0  0  0  0  0  0  0
   -5.2020   20.9800  -29.1670 Cl  0  0  0  0  0  0  0  0  0  0  0  0
   -5.7120   31.6640  -31.8290 H   0  0  0  0  0  0  0  0  0  0  0  0
   -0.9770   21.0780  -26.7850 H   0  0  0  0  0  0  0  0  0  0  0  0
   -3.2530   20.2040  -27.2350 H   0  0  0  0  0  0  0  0  0  0  0  0
   -0.0930   22.9930  -28.0920 H   0  0  0  0  0  0  0  0  0  0  0  0
   -3.8890   25.1100  -29.8110 H   0  0  0  0  0  0  0  0  0  0  0  0
   -5.7030   23.7660  -32.8630 H   0  0  0  0  0  0  0  0  0  0  0  0
   -7.2170   25.2520  -34.1850 H   0  0  0  0  0  0  0  0  0  0  0  0
   -4.7750   27.1800  -30.3170 H   0  0  0  0  0  0  0  0  0  0  0  0
   -7.3050   29.2410  -32.1710 H   0  0  0  0  0  0  0  0  0  0  0  0
   -5.7210   31.9870  -29.7000 C   0  0  0  0  0  0  0  0  0  0  0  0
   -7.2730   31.2540  -31.0290 H   0  0  0  0  0  0  0  0  0  0  0  0
   -6.0120   33.0560  -29.8530 H   0  0  0  0  0  0  0  0  0  0  0  0
   -6.2080   31.6300  -28.7690 H   0  0  0  0  0  0  0  0  0  0  0  0
   -4.6150   31.9400  -29.5700 H   0  0  0  0  0  0  0  0  0  0  0  0
  1  2  2  0  0  0  0
  1  6  1  0  0  0  0
  1 23  1  0  0  0  0
  2  3  1  0  0  0  0
  2 24  1  0  0  0  0
  3  4  2  0  0  0  0
  3 21  1  0  0  0  0
  4  5  1  0  0  0  0
  4  8  1  0  0  0  0
  5  6  2  0  0  0  0
  5  7  1  0  0  0  0
  6 25  1  0  0  0  0
  8  9  2  0  0  0  0
  8 10  1  0  0  0  0
 10 11  1  0  0  0  0
 10 26  1  0  0  0  0
 11 12  2  0  0  0  0
 11 16  1  0  0  0  0
 12 13  1  0  0  0  0
 12 27  1  0  0  0  0
 13 14  2  0  0  0  0
 13 28  1  0  0  0  0
 14 15  1  0  0  0  0
 15 16  2  0  0  0  0
 15 17  1  0  0  0  0
 16 29  1  0  0  0  0
 17 18  1  0  0  0  0
 17 30  1  0  0  0  0
 18 19  2  0  0  0  0
 18 20  1  0  0  0  0
 20 22  1  0  0  0  0
 20 31  1  0  0  0  0
 20 32  1  0  0  0  0
 31 33  1  0  0  0  0
 31 34  1  0  0  0  0
 31 35  1  0  0  0  0
M  END
$$$$
