p38a_2f
 OpenBabel02232411163D
Structure written by MMmdl.
 46 49  0  0  0  0  0  0  0  0999 V2000
   32.3610   39.7660   27.3420 C   0  0  0  0  0  0  0  0  0  0  0  0
   33.2700   40.5910   28.2620 C   0  0  0  0  0  0  0  0  0  0  0  0
   35.1170   39.0760   27.9850 C   0  0  0  0  0  0  0  0  0  0  0  0
   34.2940   38.1190   27.1220 C   0  0  0  0  0  0  0  0  0  0  0  0
   37.9280   36.1480   17.2940 C   0  0  0  0  0  0  0  0  0  0  0  0
   34.2710   39.7860   28.9200 O   0  0  0  0  0  0  0  0  0  0  0  0
   34.3090   34.9910   21.3730 C   0  0  0  0  0  0  0  0  0  0  0  0
   37.1320   35.8370   18.4000 C   0  0  0  0  0  0  0  0  0  0  0  0
   33.9390   39.0290   24.0180 C   0  0  0  0  0  0  0  0  0  0  0  0
   33.1370   38.8320   26.3920 C   0  0  0  0  0  0  0  0  0  0  0  0
   34.5630   37.8560   21.5980 C   0  0  0  0  0  0  0  0  0  0  0  0
   34.8740   37.2180   20.3490 C   0  0  0  0  0  0  0  0  0  0  0  0
   37.4370   36.2200   15.9870 C   0  0  0  0  0  0  0  0  0  0  0  0
   36.0790   35.9630   15.7760 C   0  0  0  0  0  0  0  0  0  0  0  0
   35.2390   35.6300   16.8420 C   0  0  0  0  0  0  0  0  0  0  0  0
   34.1310   37.0770   22.7120 C   0  0  0  0  0  0  0  0  0  0  0  0
   34.6450   39.2630   21.7920 C   0  0  0  0  0  0  0  0  0  0  0  0
   34.7560   35.8710   20.2630 C   0  0  0  0  0  0  0  0  0  0  0  0
   35.7830   35.5790   18.1310 C   0  0  0  0  0  0  0  0  0  0  0  0
   33.5580   34.9020   23.7850 C   0  0  0  0  0  0  0  0  0  0  0  0
   37.5320   35.8320   19.4140 H   0  0  0  0  0  0  0  0  0  0  0  0
   34.9140   35.0970   19.1180 O   0  0  0  0  0  0  0  0  0  0  0  0
   34.3530   39.8620   22.9550 N   0  0  0  0  0  0  0  0  0  0  0  0
   34.1820   33.7870   21.3120 O   0  0  0  0  0  0  0  0  0  0  0  0
   34.0130   35.6820   22.6000 N   0  0  0  0  0  0  0  0  0  0  0  0
   33.8210   37.6540   23.9160 N   0  0  0  0  0  0  0  0  0  0  0  0
   33.6250   39.6220   25.2140 N   0  0  0  0  0  0  0  0  0  0  0  0
   31.6810   39.1290   27.9600 H   0  0  0  0  0  0  0  0  0  0  0  0
   31.7280   40.4650   26.7430 H   0  0  0  0  0  0  0  0  0  0  0  0
   33.7850   41.3950   27.6910 H   0  0  0  0  0  0  0  0  0  0  0  0
   32.6940   41.0090   29.1200 H   0  0  0  0  0  0  0  0  0  0  0  0
   35.8050   38.5230   28.6660 H   0  0  0  0  0  0  0  0  0  0  0  0
   35.6610   39.8170   27.3570 H   0  0  0  0  0  0  0  0  0  0  0  0
   34.9630   37.6120   26.3850 H   0  0  0  0  0  0  0  0  0  0  0  0
   33.8430   37.3200   27.7650 H   0  0  0  0  0  0  0  0  0  0  0  0
   39.2220   36.3850   17.4980 F   0  0  0  0  0  0  0  0  0  0  0  0
   32.4220   38.0470   26.0050 H   0  0  0  0  0  0  0  0  0  0  0  0
   35.1920   37.8440   19.5100 H   0  0  0  0  0  0  0  0  0  0  0  0
   35.6610   36.0410   14.7700 H   0  0  0  0  0  0  0  0  0  0  0  0
   34.1750   35.4500   16.6700 H   0  0  0  0  0  0  0  0  0  0  0  0
   34.9570   39.9120   20.9560 H   0  0  0  0  0  0  0  0  0  0  0  0
   34.2380   35.1000   24.6590 H   0  0  0  0  0  0  0  0  0  0  0  0
   32.5170   35.2150   24.0720 H   0  0  0  0  0  0  0  0  0  0  0  0
   33.5650   33.8060   23.5560 H   0  0  0  0  0  0  0  0  0  0  0  0
   33.7130   40.6490   25.3220 H   0  0  0  0  0  0  0  0  0  0  0  0
   38.0750   36.4990   15.1510 H   0  0  0  0  0  0  0  0  0  0  0  0
  1  2  1  0  0  0  0
  1 10  1  0  0  0  0
  1 28  1  0  0  0  0
  1 29  1  0  0  0  0
  2  6  1  0  0  0  0
  2 30  1  0  0  0  0
  2 31  1  0  0  0  0
  3  4  1  0  0  0  0
  3  6  1  0  0  0  0
  3 32  1  0  0  0  0
  3 33  1  0  0  0  0
  4 10  1  0  0  0  0
  4 34  1  0  0  0  0
  4 35  1  0  0  0  0
  5  8  2  0  0  0  0
  5 13  1  0  0  0  0
  5 36  1  0  0  0  0
  7 18  1  0  0  0  0
  7 24  2  0  0  0  0
  7 25  1  0  0  0  0
  8 19  1  0  0  0  0
  8 21  1  0  0  0  0
  9 23  2  0  0  0  0
  9 26  1  0  0  0  0
  9 27  1  0  0  0  0
 10 27  1  0  0  0  0
 10 37  1  0  0  0  0
 11 12  1  0  0  0  0
 11 16  1  0  0  0  0
 11 17  2  0  0  0  0
 12 18  2  0  0  0  0
 12 38  1  0  0  0  0
 13 14  2  0  0  0  0
 13 46  1  0  0  0  0
 14 15  1  0  0  0  0
 14 39  1  0  0  0  0
 15 19  2  0  0  0  0
 15 40  1  0  0  0  0
 16 25  1  0  0  0  0
 16 26  2  0  0  0  0
 17 23  1  0  0  0  0
 17 41  1  0  0  0  0
 18 22  1  0  0  0  0
 19 22  1  0  0  0  0
 20 25  1  0  0  0  0
 20 42  1  0  0  0  0
 20 43  1  0  0  0  0
 20 44  1  0  0  0  0
 27 45  1  0  0  0  0
M  END
$$$$
