23475
                    3D
 Schrodinger Suite 2022-3.
 42 44  0  0  1  0  0  0  0  0999 V2000
   43.7480   13.8960   16.7330 S   0  0  0  0  0  0  0  0  0  0  0  0
   43.6250   15.2350   15.6130 C   0  0  0  0  0  0  0  0  0  0  0  0
   42.7370   14.9100   14.6220 C   0  0  0  0  0  0  0  0  0  0  0  0
   42.1260   13.6090   14.8010 C   0  0  0  0  0  0  0  0  0  0  0  0
   42.5550   12.9250   15.9060 C   0  0  0  0  0  0  0  0  0  0  0  0
   44.4160   16.5210   15.8640 C   0  0  0  0  0  0  0  0  0  0  0  0
   45.2640   16.4480   16.7810 O   0  0  0  0  0  0  0  0  0  0  0  0
   44.1690   17.5180   15.1850 O   0  5  0  0  0  0  0  0  0  0  0  0
   42.1560   11.6060   16.3570 C   0  0  0  0  0  0  0  0  0  0  0  0
   40.8290   11.1990   16.1710 C   0  0  0  0  0  0  0  0  0  0  0  0
   40.4430    9.8550   16.3700 C   0  0  0  0  0  0  0  0  0  0  0  0
   41.3620    8.9500   16.9200 C   0  0  0  0  0  0  0  0  0  0  0  0
   42.6610    9.3940   17.2110 C   0  0  0  0  0  0  0  0  0  0  0  0
   43.0750   10.6890   16.9150 C   0  0  0  0  0  0  0  0  0  0  0  0
   40.8550   12.9270   13.5520 Br  0  0  0  0  0  0  0  0  0  0  0  0
   42.5490   15.6810   13.5190 O   0  0  0  0  0  0  0  0  0  0  0  0
   41.1910   16.2090   13.3800 C   0  0  0  0  0  0  0  0  0  0  0  0
   41.4400   17.6190   12.7680 C   0  0  0  0  0  0  0  0  0  0  0  0
   40.4340   18.3610   12.7470 O   0  5  0  0  0  0  0  0  0  0  0  0
   42.5630   17.8940   12.3300 O   0  0  0  0  0  0  0  0  0  0  0  0
   39.0810    9.5360   16.0430 N   0  0  0  0  0  0  0  0  0  0  0  0
   40.0620   11.9140   15.8610 H   0  0  0  0  0  0  0  0  0  0  0  0
   41.1000    7.9150   17.1210 H   0  0  0  0  0  0  0  0  0  0  0  0
   43.3590    8.6850   17.6640 H   0  0  0  0  0  0  0  0  0  0  0  0
   44.1110   10.9710   17.1100 H   0  0  0  0  0  0  0  0  0  0  0  0
   40.6650   16.2610   14.3550 H   0  0  0  0  0  0  0  0  0  0  0  0
   40.6470   15.5480   12.6750 H   0  0  0  0  0  0  0  0  0  0  0  0
   38.7190   10.1390   15.2700 H   0  0  0  0  0  0  0  0  0  0  0  0
   38.9690    7.5110   16.6990 H   0  0  0  0  0  0  0  0  0  0  0  0
   38.7130    8.1180   15.7920 C   0  0  0  0  0  0  0  0  0  0  0  0
   37.1840    8.0150   15.5330 C   0  0  0  0  0  0  0  0  0  0  0  0
   36.9900    6.8040   14.6010 C   0  0  0  0  0  0  0  0  0  0  0  0
   38.3610    6.4850   13.9640 C   0  0  0  0  0  0  0  0  0  0  0  0
   39.3830    7.4810   14.5410 C   0  0  0  0  0  0  0  0  0  0  0  0
   36.7990    8.9340   15.0360 H   0  0  0  0  0  0  0  0  0  0  0  0
   36.6330    7.8720   16.4870 H   0  0  0  0  0  0  0  0  0  0  0  0
   36.6290    5.9240   15.1830 H   0  0  0  0  0  0  0  0  0  0  0  0
   36.2320    7.0280   13.8190 H   0  0  0  0  0  0  0  0  0  0  0  0
   38.6590    5.4400   14.2140 H   0  0  0  0  0  0  0  0  0  0  0  0
   38.3100    6.5710   12.8580 H   0  0  0  0  0  0  0  0  0  0  0  0
   39.6220    8.2590   13.7840 H   0  0  0  0  0  0  0  0  0  0  0  0
   40.3240    6.9590   14.8200 H   0  0  0  0  0  0  0  0  0  0  0  0
  1  2  1  0  0  0  0
  1  5  1  0  0  0  0
  2  3  2  0  0  0  0
  2  6  1  0  0  0  0
  3  4  1  0  0  0  0
  3 16  1  0  0  0  0
  4  5  2  0  0  0  0
  4 15  1  0  0  0  0
  5  9  1  0  0  0  0
  6  7  2  0  0  0  0
  6  8  1  0  0  0  0
  9 10  1  0  0  0  0
  9 14  2  0  0  0  0
 10 11  2  0  0  0  0
 10 22  1  0  0  0  0
 11 12  1  0  0  0  0
 11 21  1  0  0  0  0
 12 13  2  0  0  0  0
 12 23  1  0  0  0  0
 13 14  1  0  0  0  0
 13 24  1  0  0  0  0
 14 25  1  0  0  0  0
 16 17  1  0  0  0  0
 17 18  1  0  0  0  0
 17 26  1  0  0  0  0
 17 27  1  0  0  0  0
 18 19  1  0  0  0  0
 18 20  2  0  0  0  0
 21 28  1  0  0  0  0
 21 30  1  0  0  0  0
 29 30  1  0  0  0  0
 30 31  1  0  0  0  0
 30 34  1  0  0  0  0
 31 32  1  0  0  0  0
 31 35  1  0  0  0  0
 31 36  1  0  0  0  0
 32 33  1  0  0  0  0
 32 37  1  0  0  0  0
 32 38  1  0  0  0  0
 33 34  1  0  0  0  0
 33 39  1  0  0  0  0
 33 40  1  0  0  0  0
 34 41  1  0  0  0  0
 34 42  1  0  0  0  0
M  CHG  2   8  -1  19  -1
M  END
$$$$
