43
 OpenBabel02232411163D
Structure written by MMmdl.
 44 47  0  0  0  0  0  0  0  0999 V2000
    3.5730  -48.3960    7.1510 O   0  0  0  0  0  0  0  0  0  0  0  0
    3.1870  -49.3310    6.4360 C   0  0  0  0  0  0  0  0  0  0  0  0
    3.8980  -50.1300    5.7980 O   0  5  0  0  0  0  0  0  0  0  0  0
    1.6710  -49.5790    6.3310 C   0  0  0  0  0  0  0  0  0  0  0  0
   -0.2350  -50.8360    6.4950 C   0  0  0  0  0  0  0  0  0  0  0  0
   -1.1930  -51.8360    6.7320 C   0  0  0  0  0  0  0  0  0  0  0  0
   -2.5130  -51.5370    6.4310 C   0  0  0  0  0  0  0  0  0  0  0  0
   -2.8790  -50.2770    5.9010 C   0  0  0  0  0  0  0  0  0  0  0  0
   -1.9370  -49.2840    5.6680 C   0  0  0  0  0  0  0  0  0  0  0  0
   -0.5890  -49.5400    5.9690 C   0  0  0  0  0  0  0  0  0  0  0  0
    0.6320  -48.7670    5.8890 C   0  0  0  0  0  0  0  0  0  0  0  0
    0.6930  -47.3550    5.4250 C   0  0  0  0  0  0  0  0  0  0  0  0
    0.6980  -46.3440    6.5870 C   0  0  0  0  0  0  0  0  0  0  0  0
   -0.5740  -46.3750    7.4270 C   0  0  0  0  0  0  0  0  0  0  0  0
   -1.5970  -45.7530    6.5650 O   0  0  0  0  0  0  0  0  0  0  0  0
   -2.8620  -45.6290    7.0560 C   0  0  0  0  0  0  0  0  0  0  0  0
   -4.5920  -45.9900    8.7080 C   0  0  0  0  0  0  0  0  0  0  0  0
   -3.2830  -46.1370    8.3270 C   0  0  0  0  0  0  0  0  0  0  0  0
   -0.9170  -52.8080    7.1400 H   0  0  0  0  0  0  0  0  0  0  0  0
   -3.2930  -52.2790    6.6070 H   0  0  0  0  0  0  0  0  0  0  0  0
   -3.9300  -50.0950    5.6760 H   0  0  0  0  0  0  0  0  0  0  0  0
   -2.2460  -48.3200    5.2610 H   0  0  0  0  0  0  0  0  0  0  0  0
   -0.2050  -47.1430    4.7890 H   0  0  0  0  0  0  0  0  0  0  0  0
    1.6100  -47.1810    4.8130 H   0  0  0  0  0  0  0  0  0  0  0  0
    1.5550  -46.5730    7.2680 H   0  0  0  0  0  0  0  0  0  0  0  0
    0.8110  -45.3160    6.1700 H   0  0  0  0  0  0  0  0  0  0  0  0
   -0.4920  -45.7330    8.3290 H   0  0  0  0  0  0  0  0  0  0  0  0
   -0.9160  -47.4080    7.6460 H   0  0  0  0  0  0  0  0  0  0  0  0
   -2.5920  -46.6510    8.9900 H   0  0  0  0  0  0  0  0  0  0  0  0
   -3.7490  -44.9720    6.2130 C   0  0  0  0  0  0  0  0  0  0  0  0
   -4.9390  -46.3800    9.6700 H   0  0  0  0  0  0  0  0  0  0  0  0
   -5.1090  -44.8400    6.5940 C   0  0  0  0  0  0  0  0  0  0  0  0
   -5.5420  -45.3600    7.8480 C   0  0  0  0  0  0  0  0  0  0  0  0
   -6.9310  -45.3330    8.1780 C   0  0  0  0  0  0  0  0  0  0  0  0
   -7.8500  -44.8790    7.2670 C   0  0  0  0  0  0  0  0  0  0  0  0
   -7.4180  -44.3350    6.0220 C   0  0  0  0  0  0  0  0  0  0  0  0
   -6.0870  -44.2850    5.7020 C   0  0  0  0  0  0  0  0  0  0  0  0
   -7.2510  -45.7110    9.1500 H   0  0  0  0  0  0  0  0  0  0  0  0
   -8.9170  -44.9460    7.4690 H   0  0  0  0  0  0  0  0  0  0  0  0
   -8.1780  -43.9790    5.3280 H   0  0  0  0  0  0  0  0  0  0  0  0
   -5.7540  -43.8570    4.7560 H   0  0  0  0  0  0  0  0  0  0  0  0
   -3.4250  -44.5930    5.2460 H   0  0  0  0  0  0  0  0  0  0  0  0
    1.1540  -50.8350    6.7060 N   0  0  0  0  0  0  0  0  0  0  0  0
    1.6650  -51.6340    7.0600 H   0  0  0  0  0  0  0  0  0  0  0  0
  1  2  2  0  0  0  0
  2  3  1  0  0  0  0
  2  4  1  0  0  0  0
  4 11  2  0  0  0  0
  4 43  1  0  0  0  0
  5  6  2  0  0  0  0
  5 10  1  0  0  0  0
  5 43  1  0  0  0  0
  6  7  1  0  0  0  0
  6 19  1  0  0  0  0
  7  8  2  0  0  0  0
  7 20  1  0  0  0  0
  8  9  1  0  0  0  0
  8 21  1  0  0  0  0
  9 10  2  0  0  0  0
  9 22  1  0  0  0  0
 10 11  1  0  0  0  0
 11 12  1  0  0  0  0
 12 23  1  0  0  0  0
 12 24  1  0  0  0  0
 12 13  1  0  0  0  0
 13 14  1  0  0  0  0
 13 25  1  0  0  0  0
 13 26  1  0  0  0  0
 14 15  1  0  0  0  0
 14 27  1  0  0  0  0
 14 28  1  0  0  0  0
 15 16  1  0  0  0  0
 16 18  2  0  0  0  0
 16 30  1  0  0  0  0
 17 18  1  0  0  0  0
 17 31  1  0  0  0  0
 17 33  2  0  0  0  0
 18 29  1  0  0  0  0
 30 32  2  0  0  0  0
 30 42  1  0  0  0  0
 32 33  1  0  0  0  0
 32 37  1  0  0  0  0
 33 34  1  0  0  0  0
 34 35  2  0  0  0  0
 34 38  1  0  0  0  0
 35 36  1  0  0  0  0
 35 39  1  0  0  0  0
 36 37  2  0  0  0  0
 36 40  1  0  0  0  0
 37 41  1  0  0  0  0
 43 44  1  0  0  0  0
M  CHG  1   3  -1
M  END
$$$$
