p38a_2p
 OpenBabel02232411163D
Structure written by MMmdl.
 58 61  0  0  0  0  0  0  0  0999 V2000
   36.3400   35.9470   15.9200 C   0  0  0  0  0  0  0  0  0  0  0  0
   34.5840   34.9810   21.5190 C   0  0  0  0  0  0  0  0  0  0  0  0
   35.6460   35.4970   17.0390 C   0  0  0  0  0  0  0  0  0  0  0  0
   33.8670   39.1290   23.9080 C   0  0  0  0  0  0  0  0  0  0  0  0
   34.6470   37.8530   21.5870 C   0  0  0  0  0  0  0  0  0  0  0  0
   35.0820   37.1700   20.4000 C   0  0  0  0  0  0  0  0  0  0  0  0
   37.6300   36.4450   16.1430 C   0  0  0  0  0  0  0  0  0  0  0  0
   38.2390   36.4700   17.4010 C   0  0  0  0  0  0  0  0  0  0  0  0
   37.5090   36.0440   18.5160 C   0  0  0  0  0  0  0  0  0  0  0  0
   34.2440   37.1170   22.7400 C   0  0  0  0  0  0  0  0  0  0  0  0
   34.6220   39.2720   21.6860 C   0  0  0  0  0  0  0  0  0  0  0  0
   35.0680   35.8180   20.3880 C   0  0  0  0  0  0  0  0  0  0  0  0
   36.2110   35.5570   18.3300 C   0  0  0  0  0  0  0  0  0  0  0  0
   34.4320   34.9790   16.9140 F   0  0  0  0  0  0  0  0  0  0  0  0
   35.4480   34.9710   19.3480 O   0  0  0  0  0  0  0  0  0  0  0  0
   34.2580   39.9180   22.8000 N   0  0  0  0  0  0  0  0  0  0  0  0
   34.4780   33.7750   21.4860 O   0  0  0  0  0  0  0  0  0  0  0  0
   34.2570   35.7090   22.7190 N   0  0  0  0  0  0  0  0  0  0  0  0
   33.8520   37.7490   23.8970 N   0  0  0  0  0  0  0  0  0  0  0  0
   33.4830   39.8320   25.0220 N   0  0  0  0  0  0  0  0  0  0  0  0
   35.8940   35.9390   14.9220 H   0  0  0  0  0  0  0  0  0  0  0  0
   35.4230   37.7720   19.5530 H   0  0  0  0  0  0  0  0  0  0  0  0
   39.2600   36.8450   17.5190 H   0  0  0  0  0  0  0  0  0  0  0  0
   37.9470   36.1150   19.5130 H   0  0  0  0  0  0  0  0  0  0  0  0
   34.9130   39.8890   20.8180 H   0  0  0  0  0  0  0  0  0  0  0  0
   33.5820   40.8670   25.0110 H   0  0  0  0  0  0  0  0  0  0  0  0
   38.2930   36.9520   15.1060 F   0  0  0  0  0  0  0  0  0  0  0  0
   33.4730   38.0110   28.4170 C   0  0  0  0  0  0  0  0  0  0  0  0
   34.0460   38.4680   27.0690 C   0  0  0  0  0  0  0  0  0  0  0  0
   32.9830   39.2950   26.3210 C   0  0  0  0  0  0  0  0  0  0  0  0
   31.6850   38.4790   26.1670 C   0  0  0  0  0  0  0  0  0  0  0  0
   31.2120   38.0110   27.5510 C   0  0  0  0  0  0  0  0  0  0  0  0
   32.2380   37.2780   28.2580 O   0  0  0  0  0  0  0  0  0  0  0  0
   33.2920   38.8830   29.0880 H   0  0  0  0  0  0  0  0  0  0  0  0
   34.1360   37.2550   28.8990 H   0  0  0  0  0  0  0  0  0  0  0  0
   34.3370   37.5760   26.4610 H   0  0  0  0  0  0  0  0  0  0  0  0
   34.9600   39.0870   27.2420 H   0  0  0  0  0  0  0  0  0  0  0  0
   32.7560   40.2260   26.9270 H   0  0  0  0  0  0  0  0  0  0  0  0
   30.8920   39.1050   25.6940 H   0  0  0  0  0  0  0  0  0  0  0  0
   31.8660   37.5880   25.5160 H   0  0  0  0  0  0  0  0  0  0  0  0
   30.8920   38.8730   28.1780 H   0  0  0  0  0  0  0  0  0  0  0  0
   30.4020   37.2510   27.4580 H   0  0  0  0  0  0  0  0  0  0  0  0
   33.9970   34.9390   23.9830 C   0  0  0  0  0  0  0  0  0  0  0  0
   34.7150   34.0740   24.0040 H   0  0  0  0  0  0  0  0  0  0  0  0
   34.2350   35.6090   24.8570 H   0  0  0  0  0  0  0  0  0  0  0  0
   32.5410   34.4460   24.1290 C   0  0  0  0  0  0  0  0  0  0  0  0
   32.2800   34.5390   25.2160 H   0  0  0  0  0  0  0  0  0  0  0  0
   31.8540   35.1350   23.5720 H   0  0  0  0  0  0  0  0  0  0  0  0
   32.3350   33.0060   23.6410 C   0  0  0  0  0  0  0  0  0  0  0  0
   33.3390   32.5170   23.5280 H   0  0  0  0  0  0  0  0  0  0  0  0
   31.8840   33.0490   22.6120 H   0  0  0  0  0  0  0  0  0  0  0  0
   31.3240   32.0080   24.6790 S   0  0  0  0  0  0  0  0  0  0  0  0
   31.7130   32.0920   26.1050 O   0  0  0  0  0  0  0  0  0  0  0  0
   31.3930   30.6050   24.1970 O   0  0  0  0  0  0  0  0  0  0  0  0
   29.6970   32.5940   24.4730 C   0  0  0  0  0  0  0  0  0  0  0  0
   29.3590   32.5280   23.4060 H   0  0  0  0  0  0  0  0  0  0  0  0
   28.9800   32.0110   25.1010 H   0  0  0  0  0  0  0  0  0  0  0  0
   29.5960   33.6770   24.7570 H   0  0  0  0  0  0  0  0  0  0  0  0
  1  3  2  0  0  0  0
  1  7  1  0  0  0  0
  1 21  1  0  0  0  0
  2 12  1  0  0  0  0
  2 17  2  0  0  0  0
  2 18  1  0  0  0  0
  3 13  1  0  0  0  0
  3 14  1  0  0  0  0
  4 16  2  0  0  0  0
  4 19  1  0  0  0  0
  4 20  1  0  0  0  0
  5  6  1  0  0  0  0
  5 10  1  0  0  0  0
  5 11  2  0  0  0  0
  6 12  2  0  0  0  0
  6 22  1  0  0  0  0
  7  8  2  0  0  0  0
  7 27  1  0  0  0  0
  8  9  1  0  0  0  0
  8 23  1  0  0  0  0
  9 13  2  0  0  0  0
  9 24  1  0  0  0  0
 10 18  1  0  0  0  0
 10 19  2  0  0  0  0
 11 16  1  0  0  0  0
 11 25  1  0  0  0  0
 12 15  1  0  0  0  0
 13 15  1  0  0  0  0
 18 43  1  0  0  0  0
 20 26  1  0  0  0  0
 20 30  1  0  0  0  0
 28 29  1  0  0  0  0
 28 33  1  0  0  0  0
 28 34  1  0  0  0  0
 28 35  1  0  0  0  0
 29 30  1  0  0  0  0
 29 36  1  0  0  0  0
 29 37  1  0  0  0  0
 30 31  1  0  0  0  0
 30 38  1  0  0  0  0
 31 32  1  0  0  0  0
 31 39  1  0  0  0  0
 31 40  1  0  0  0  0
 32 33  1  0  0  0  0
 32 41  1  0  0  0  0
 32 42  1  0  0  0  0
 43 44  1  0  0  0  0
 43 45  1  0  0  0  0
 43 46  1  0  0  0  0
 46 47  1  0  0  0  0
 46 48  1  0  0  0  0
 46 49  1  0  0  0  0
 49 50  1  0  0  0  0
 49 51  1  0  0  0  0
 49 52  1  0  0  0  0
 52 53  2  0  0  0  0
 52 54  2  0  0  0  0
 52 55  1  0  0  0  0
 55 56  1  0  0  0  0
 55 57  1  0  0  0  0
 55 58  1  0  0  0  0
M  END
$$$$
