34
 OpenBabel04222415263D
Structure written by MMmdl.
 41 43  0  0  0  0  0  0  0  0999 V2000
    3.8550  -50.2060    5.8510 O   0  0  0  0  0  0  0  0  0  0  0  0
    3.1560  -49.3720    6.4570 C   0  0  0  0  0  0  0  0  0  0  0  0
    3.5560  -48.4190    7.1380 O   0  5  0  0  0  0  0  0  0  0  0  0
    1.6340  -49.5990    6.3500 C   0  0  0  0  0  0  0  0  0  0  0  0
   -0.2920  -50.8270    6.5050 C   0  0  0  0  0  0  0  0  0  0  0  0
   -1.2680  -51.8100    6.7400 C   0  0  0  0  0  0  0  0  0  0  0  0
   -2.5820  -51.4930    6.4250 C   0  0  0  0  0  0  0  0  0  0  0  0
   -2.9230  -50.2320    5.8820 C   0  0  0  0  0  0  0  0  0  0  0  0
   -1.9630  -49.2560    5.6500 C   0  0  0  0  0  0  0  0  0  0  0  0
   -0.6220  -49.5310    5.9650 C   0  0  0  0  0  0  0  0  0  0  0  0
    0.6110  -48.7760    5.8920 C   0  0  0  0  0  0  0  0  0  0  0  0
    0.6890  -47.3670    5.4240 C   0  0  0  0  0  0  0  0  0  0  0  0
    0.6420  -46.3530    6.5830 C   0  0  0  0  0  0  0  0  0  0  0  0
   -0.6670  -46.3860    7.3630 C   0  0  0  0  0  0  0  0  0  0  0  0
   -1.6440  -45.7660    6.4390 O   0  0  0  0  0  0  0  0  0  0  0  0
   -2.9080  -45.5700    6.8780 C   0  0  0  0  0  0  0  0  0  0  0  0
   -3.4350  -46.0590    8.0900 C   0  0  0  0  0  0  0  0  0  0  0  0
   -4.7570  -45.7750    8.4170 C   0  0  0  0  0  0  0  0  0  0  0  0
   -5.5510  -44.9940    7.5630 C   0  0  0  0  0  0  0  0  0  0  0  0
   -5.0170  -44.5100    6.3490 C   0  0  0  0  0  0  0  0  0  0  0  0
   -3.7110  -44.8010    5.9970 C   0  0  0  0  0  0  0  0  0  0  0  0
   -1.0120  -52.7820    7.1600 H   0  0  0  0  0  0  0  0  0  0  0  0
   -3.3750  -52.2220    6.5990 H   0  0  0  0  0  0  0  0  0  0  0  0
   -3.9690  -50.0330    5.6470 H   0  0  0  0  0  0  0  0  0  0  0  0
   -2.2540  -48.2910    5.2330 H   0  0  0  0  0  0  0  0  0  0  0  0
   -0.1860  -47.1590    4.7540 H   0  0  0  0  0  0  0  0  0  0  0  0
    1.6280  -47.1910    4.8470 H   0  0  0  0  0  0  0  0  0  0  0  0
    0.7720  -45.3240    6.1730 H   0  0  0  0  0  0  0  0  0  0  0  0
    1.4710  -46.5790    7.3000 H   0  0  0  0  0  0  0  0  0  0  0  0
   -0.6380  -45.7390    8.2650 H   0  0  0  0  0  0  0  0  0  0  0  0
   -1.0270  -47.4180    7.5660 H   0  0  0  0  0  0  0  0  0  0  0  0
   -2.8500  -46.6760    8.7690 H   0  0  0  0  0  0  0  0  0  0  0  0
   -3.3020  -44.4480    5.0530 H   0  0  0  0  0  0  0  0  0  0  0  0
    1.0940  -50.8430    6.7290 N   0  0  0  0  0  0  0  0  0  0  0  0
    1.5910  -51.6480    7.0940 H   0  0  0  0  0  0  0  0  0  0  0  0
   -5.6380  -43.9130    5.6760 H   0  0  0  0  0  0  0  0  0  0  0  0
   -5.1670  -46.1760    9.3490 H   0  0  0  0  0  0  0  0  0  0  0  0
   -6.9670  -44.6870    7.8970 C   0  0  0  0  0  0  0  0  0  0  0  0
   -7.8820  -45.2400    7.0770 F   0  0  0  0  0  0  0  0  0  0  0  0
   -7.3920  -45.0620    9.1170 F   0  0  0  0  0  0  0  0  0  0  0  0
   -7.2830  -43.3770    7.8560 F   0  0  0  0  0  0  0  0  0  0  0  0
  1  2  2  0  0  0  0
  2  3  1  0  0  0  0
  2  4  1  0  0  0  0
  4 11  2  0  0  0  0
  4 34  1  0  0  0  0
  5  6  2  0  0  0  0
  5 10  1  0  0  0  0
  5 34  1  0  0  0  0
  6  7  1  0  0  0  0
  6 22  1  0  0  0  0
  7  8  2  0  0  0  0
  7 23  1  0  0  0  0
  8  9  1  0  0  0  0
  8 24  1  0  0  0  0
  9 10  2  0  0  0  0
  9 25  1  0  0  0  0
 10 11  1  0  0  0  0
 11 12  1  0  0  0  0
 12 26  1  0  0  0  0
 12 27  1  0  0  0  0
 12 13  1  0  0  0  0
 13 14  1  0  0  0  0
 13 28  1  0  0  0  0
 13 29  1  0  0  0  0
 14 15  1  0  0  0  0
 14 30  1  0  0  0  0
 14 31  1  0  0  0  0
 15 16  1  0  0  0  0
 16 17  2  0  0  0  0
 16 21  1  0  0  0  0
 17 18  1  0  0  0  0
 17 32  1  0  0  0  0
 18 19  2  0  0  0  0
 18 37  1  0  0  0  0
 19 20  1  0  0  0  0
 19 38  1  0  0  0  0
 20 21  2  0  0  0  0
 20 36  1  0  0  0  0
 21 33  1  0  0  0  0
 34 35  1  0  0  0  0
 38 39  1  0  0  0  0
 38 40  1  0  0  0  0
 38 41  1  0  0  0  0
M  CHG  1   3  -1
M  END
$$$$
