18639-1
 OpenBabel02232411163D
Structure written by MMmdl.
 48 49  0  0  0  0  0  0  0  0999 V2000
   23.8220   12.6810   30.3300 C   0  0  0  0  0  0  0  0  0  0  0  0
   23.3770   11.2350   30.4420 C   0  0  0  0  0  0  0  0  0  0  0  0
   22.1300   11.3290   31.2450 O   0  0  0  0  0  0  0  0  0  0  0  0
   21.5050   10.1860   31.5950 C   0  0  0  0  0  0  0  0  0  0  0  0
   21.9980    8.9990   31.1670 N   0  0  0  0  0  0  0  0  0  0  0  0
   21.2760    7.8580   31.4850 C   0  0  0  0  0  0  0  0  0  0  0  0
   20.1140    7.8910   32.2490 C   0  0  0  0  0  0  0  0  0  0  0  0
   19.6160    9.1390   32.7100 C   0  0  0  0  0  0  0  0  0  0  0  0
   18.4700    9.1730   33.4630 N   0  0  0  0  0  0  0  0  0  0  0  0
   20.3150   10.3400   32.3670 C   0  0  0  0  0  0  0  0  0  0  0  0
   19.8800   11.6390   32.7060 C   0  0  0  0  0  0  0  0  0  0  0  0
   19.5710   12.7320   32.9410 N   0  0  0  0  0  0  0  0  0  0  0  0
   21.8560    6.6920   30.9310 N   0  0  0  0  0  0  0  0  0  0  0  0
   21.2630    5.4140   30.8610 C   0  0  0  0  0  0  0  0  0  0  0  0
   20.1760    5.1650   31.3390 O   0  0  0  0  0  0  0  0  0  0  0  0
   22.0780    4.4050   30.0600 C   0  0  0  0  0  0  0  0  0  0  0  0
   23.4390    4.1150   30.6200 C   0  0  0  0  0  0  0  0  0  0  0  0
   24.5470    4.9600   30.3000 C   0  0  0  0  0  0  0  0  0  0  0  0
   24.2010    6.0110   29.4610 O   0  0  0  0  0  0  0  0  0  0  0  0
   25.1770    7.0740   29.2760 C   0  0  0  0  0  0  0  0  0  0  0  0
   25.8240    4.7000   30.7710 C   0  0  0  0  0  0  0  0  0  0  0  0
   26.0410    3.5780   31.6000 C   0  0  0  0  0  0  0  0  0  0  0  0
   27.3910    3.3000   32.0960 N   0  3  0  0  0  0  0  0  0  0  0  0
   27.5180    2.4990   33.0100 O   0  5  0  0  0  0  0  0  0  0  0  0
   28.3380    3.8740   31.5700 O   0  0  0  0  0  0  0  0  0  0  0  0
   24.9570    2.7290   31.9230 C   0  0  0  0  0  0  0  0  0  0  0  0
   23.6640    3.0040   31.4180 C   0  0  0  0  0  0  0  0  0  0  0  0
   25.2920    1.6830   32.7300 O   0  0  0  0  0  0  0  0  0  0  0  0
   24.2850    0.6540   32.9590 C   0  0  0  0  0  0  0  0  0  0  0  0
   24.7540   12.7200   29.7100 H   0  0  0  0  0  0  0  0  0  0  0  0
   23.0440   13.3010   29.8260 H   0  0  0  0  0  0  0  0  0  0  0  0
   24.0390   13.1180   31.3300 H   0  0  0  0  0  0  0  0  0  0  0  0
   23.1090   10.7930   29.4570 H   0  0  0  0  0  0  0  0  0  0  0  0
   24.1040   10.6030   31.0000 H   0  0  0  0  0  0  0  0  0  0  0  0
   19.5680    6.9750   32.4840 H   0  0  0  0  0  0  0  0  0  0  0  0
   17.9650    8.2980   33.7060 H   0  0  0  0  0  0  0  0  0  0  0  0
   18.0550   10.0560   33.7610 H   0  0  0  0  0  0  0  0  0  0  0  0
   22.7770    6.8340   30.4460 H   0  0  0  0  0  0  0  0  0  0  0  0
   21.4900    3.4500   29.9970 H   0  0  0  0  0  0  0  0  0  0  0  0
   22.1970    4.8160   29.0170 H   0  0  0  0  0  0  0  0  0  0  0  0
   25.5150    7.4690   30.2580 H   0  0  0  0  0  0  0  0  0  0  0  0
   26.0170    6.6950   28.6560 H   0  0  0  0  0  0  0  0  0  0  0  0
   24.5710    7.8310   28.7260 H   0  0  0  0  0  0  0  0  0  0  0  0
   26.6730    5.3390   30.5020 H   0  0  0  0  0  0  0  0  0  0  0  0
   22.8380    2.3290   31.6540 H   0  0  0  0  0  0  0  0  0  0  0  0
   24.8620   -0.0880   33.5620 H   0  0  0  0  0  0  0  0  0  0  0  0
   23.4370    1.0700   33.5440 H   0  0  0  0  0  0  0  0  0  0  0  0
   23.9600    0.2150   31.9900 H   0  0  0  0  0  0  0  0  0  0  0  0
  1  2  1  0  0  0  0
  1 30  1  0  0  0  0
  1 31  1  0  0  0  0
  1 32  1  0  0  0  0
  2  3  1  0  0  0  0
  2 33  1  0  0  0  0
  2 34  1  0  0  0  0
  3  4  1  0  0  0  0
  4 10  2  0  0  0  0
  4  5  1  0  0  0  0
  5  6  2  0  0  0  0
  6  7  1  0  0  0  0
  6 13  1  0  0  0  0
  7  8  2  0  0  0  0
  7 35  1  0  0  0  0
  8  9  1  0  0  0  0
  8 10  1  0  0  0  0
  9 36  1  0  0  0  0
  9 37  1  0  0  0  0
 10 11  1  0  0  0  0
 11 12  3  0  0  0  0
 13 14  1  0  0  0  0
 13 38  1  0  0  0  0
 14 15  2  0  0  0  0
 14 16  1  0  0  0  0
 16 17  1  0  0  0  0
 16 39  1  0  0  0  0
 16 40  1  0  0  0  0
 17 27  2  0  0  0  0
 17 18  1  0  0  0  0
 18 19  1  0  0  0  0
 18 21  2  0  0  0  0
 19 20  1  0  0  0  0
 20 41  1  0  0  0  0
 20 42  1  0  0  0  0
 20 43  1  0  0  0  0
 21 22  1  0  0  0  0
 21 44  1  0  0  0  0
 22 23  1  0  0  0  0
 22 26  2  0  0  0  0
 23 24  1  0  0  0  0
 23 25  2  0  0  0  0
 26 27  1  0  0  0  0
 26 28  1  0  0  0  0
 27 45  1  0  0  0  0
 28 29  1  0  0  0  0
 29 46  1  0  0  0  0
 29 47  1  0  0  0  0
 29 48  1  0  0  0  0
M  CHG  2  23   1  24  -1
M  END
$$$$
