p38a_2s
 OpenBabel02232411163D
Structure written by MMmdl.
 54 57  0  0  1  0  0  0  0  0999 V2000
   36.3290   35.9270   15.9730 C   0  0  0  0  0  0  0  0  0  0  0  0
   34.5220   35.0670   21.5790 C   0  0  0  0  0  0  0  0  0  0  0  0
   35.6100   35.5050   17.0880 C   0  0  0  0  0  0  0  0  0  0  0  0
   34.1990   39.2050   24.0560 C   0  0  0  0  0  0  0  0  0  0  0  0
   34.7400   37.9260   21.6700 C   0  0  0  0  0  0  0  0  0  0  0  0
   35.1010   37.2350   20.4640 C   0  0  0  0  0  0  0  0  0  0  0  0
   37.6250   36.4030   16.2100 C   0  0  0  0  0  0  0  0  0  0  0  0
   38.2190   36.4280   17.4750 C   0  0  0  0  0  0  0  0  0  0  0  0
   37.4650   36.0260   18.5840 C   0  0  0  0  0  0  0  0  0  0  0  0
   34.4180   37.1940   22.8510 C   0  0  0  0  0  0  0  0  0  0  0  0
   34.7100   39.3460   21.7700 C   0  0  0  0  0  0  0  0  0  0  0  0
   35.0400   35.8820   20.4500 C   0  0  0  0  0  0  0  0  0  0  0  0
   36.1580   35.5710   18.3860 C   0  0  0  0  0  0  0  0  0  0  0  0
   34.3860   35.0120   16.9530 F   0  0  0  0  0  0  0  0  0  0  0  0
   35.3580   35.0240   19.3970 O   0  0  0  0  0  0  0  0  0  0  0  0
   34.4390   39.9960   22.9090 N   0  0  0  0  0  0  0  0  0  0  0  0
   34.2590   33.8820   21.5100 O   0  0  0  0  0  0  0  0  0  0  0  0
   34.3100   35.7850   22.8050 N   0  0  0  0  0  0  0  0  0  0  0  0
   34.1980   37.8210   24.0440 N   0  0  0  0  0  0  0  0  0  0  0  0
   33.9230   39.8550   25.2290 N   0  0  0  0  0  0  0  0  0  0  0  0
   35.8990   35.9140   14.9680 H   0  0  0  0  0  0  0  0  0  0  0  0
   35.4320   37.8270   19.6070 H   0  0  0  0  0  0  0  0  0  0  0  0
   39.2440   36.7860   17.6030 H   0  0  0  0  0  0  0  0  0  0  0  0
   37.8920   36.0940   19.5860 H   0  0  0  0  0  0  0  0  0  0  0  0
   34.9100   39.9580   20.8740 H   0  0  0  0  0  0  0  0  0  0  0  0
   33.9680   40.8900   25.2750 H   0  0  0  0  0  0  0  0  0  0  0  0
   38.3100   36.8890   15.1770 F   0  0  0  0  0  0  0  0  0  0  0  0
   32.5940   39.3340   28.7760 C   0  0  0  0  0  0  0  0  0  0  0  0
   32.7350   39.9720   27.3880 C   0  0  0  0  0  0  0  0  0  0  0  0
   33.7000   39.1370   26.5210 C   0  0  0  0  0  0  0  0  0  0  0  0
   35.0450   38.9340   27.2540 C   0  0  0  0  0  0  0  0  0  0  0  0
   34.7920   38.3450   28.6470 C   0  0  0  0  0  0  0  0  0  0  0  0
   33.8790   39.1630   29.4150 O   0  0  0  0  0  0  0  0  0  0  0  0
   32.0870   38.3440   28.7100 H   0  0  0  0  0  0  0  0  0  0  0  0
   32.0680   40.0190   29.4800 H   0  0  0  0  0  0  0  0  0  0  0  0
   33.1240   41.0130   27.4990 H   0  0  0  0  0  0  0  0  0  0  0  0
   31.7360   40.0220   26.8950 H   0  0  0  0  0  0  0  0  0  0  0  0
   33.2330   38.1330   26.3050 H   0  0  0  0  0  0  0  0  0  0  0  0
   35.6850   38.2300   26.6700 H   0  0  0  0  0  0  0  0  0  0  0  0
   35.5810   39.9080   27.3420 H   0  0  0  0  0  0  0  0  0  0  0  0
   34.3760   37.3120   28.5730 H   0  0  0  0  0  0  0  0  0  0  0  0
   35.7150   38.3700   29.2700 H   0  0  0  0  0  0  0  0  0  0  0  0
   33.9900   35.0310   24.0580 C   0  0  0  0  0  0  0  0  0  0  0  0
   34.6470   34.1170   24.0970 H   0  0  0  0  0  0  0  0  0  0  0  0
   34.2510   35.6750   24.9520 H   0  0  0  0  0  0  0  0  0  0  0  0
   32.5130   34.5940   24.2140 C   0  0  2  0  0  0  0  0  0  0  0  0
   32.2220   33.4070   23.4680 O   0  0  0  0  0  0  0  0  0  0  0  0
   32.7410   33.4010   22.6220 H   0  0  0  0  0  0  0  0  0  0  0  0
   31.4520   35.6500   23.8290 C   0  0  0  0  0  0  0  0  0  0  0  0
   30.4800   35.1470   23.6060 H   0  0  0  0  0  0  0  0  0  0  0  0
   31.7760   36.2990   22.9880 H   0  0  0  0  0  0  0  0  0  0  0  0
   32.3620   34.2740   25.2810 H   0  0  0  0  0  0  0  0  0  0  0  0
   31.2570   36.6050   24.8780 O   0  0  0  0  0  0  0  0  0  0  0  0
   30.8890   36.1710   25.6830 H   0  0  0  0  0  0  0  0  0  0  0  0
  1  3  2  0  0  0  0
  1  7  1  0  0  0  0
  1 21  1  0  0  0  0
  2 12  1  0  0  0  0
  2 17  2  0  0  0  0
  2 18  1  0  0  0  0
  3 13  1  0  0  0  0
  3 14  1  0  0  0  0
  4 16  2  0  0  0  0
  4 19  1  0  0  0  0
  4 20  1  0  0  0  0
  5  6  1  0  0  0  0
  5 10  1  0  0  0  0
  5 11  2  0  0  0  0
  6 12  2  0  0  0  0
  6 22  1  0  0  0  0
  7  8  2  0  0  0  0
  7 27  1  0  0  0  0
  8  9  1  0  0  0  0
  8 23  1  0  0  0  0
  9 13  2  0  0  0  0
  9 24  1  0  0  0  0
 10 18  1  0  0  0  0
 10 19  2  0  0  0  0
 11 16  1  0  0  0  0
 11 25  1  0  0  0  0
 12 15  1  0  0  0  0
 13 15  1  0  0  0  0
 18 43  1  0  0  0  0
 20 26  1  0  0  0  0
 20 30  1  0  0  0  0
 28 29  1  0  0  0  0
 28 33  1  0  0  0  0
 28 34  1  0  0  0  0
 28 35  1  0  0  0  0
 29 30  1  0  0  0  0
 29 36  1  0  0  0  0
 29 37  1  0  0  0  0
 30 31  1  0  0  0  0
 30 38  1  0  0  0  0
 31 32  1  0  0  0  0
 31 39  1  0  0  0  0
 31 40  1  0  0  0  0
 32 33  1  0  0  0  0
 32 41  1  0  0  0  0
 32 42  1  0  0  0  0
 43 44  1  0  0  0  0
 43 45  1  0  0  0  0
 43 46  1  0  0  0  0
 46 47  1  0  0  0  0
 46 49  1  0  0  0  0
 46 52  1  1  0  0  0
 47 48  1  0  0  0  0
 49 50  1  0  0  0  0
 49 51  1  0  0  0  0
 49 53  1  0  0  0  0
 53 54  1  0  0  0  0
M  END
$$$$
