45
 OpenBabel02232411163D
Structure written by MMmdl.
 48 51  0  0  0  0  0  0  0  0999 V2000
    3.6210  -49.8400    5.8140 O   0  0  0  0  0  0  0  0  0  0  0  0
    2.8990  -49.0230    6.4210 C   0  0  0  0  0  0  0  0  0  0  0  0
    3.2790  -48.0360    7.0660 O   0  5  0  0  0  0  0  0  0  0  0  0
    1.3910  -49.3420    6.3630 C   0  0  0  0  0  0  0  0  0  0  0  0
   -0.4220  -50.7320    6.5410 C   0  0  0  0  0  0  0  0  0  0  0  0
   -1.3070  -51.8030    6.7630 C   0  0  0  0  0  0  0  0  0  0  0  0
   -2.6500  -51.5880    6.4890 C   0  0  0  0  0  0  0  0  0  0  0  0
   -3.1120  -50.3410    6.0060 C   0  0  0  0  0  0  0  0  0  0  0  0
   -2.2440  -49.2790    5.7900 C   0  0  0  0  0  0  0  0  0  0  0  0
   -0.8760  -49.4530    6.0570 C   0  0  0  0  0  0  0  0  0  0  0  0
    0.2880  -48.5960    5.9650 C   0  0  0  0  0  0  0  0  0  0  0  0
    0.2190  -47.1830    5.5080 C   0  0  0  0  0  0  0  0  0  0  0  0
    0.1810  -46.1650    6.6620 C   0  0  0  0  0  0  0  0  0  0  0  0
   -1.0050  -46.3120    7.6100 C   0  0  0  0  0  0  0  0  0  0  0  0
   -2.1700  -45.7350    6.9120 O   0  0  0  0  0  0  0  0  0  0  0  0
   -3.3660  -45.7330    7.5820 C   0  0  0  0  0  0  0  0  0  0  0  0
   -5.8920  -45.5970    8.7560 C   0  0  0  0  0  0  0  0  0  0  0  0
   -4.8780  -46.3280    9.3630 C   0  0  0  0  0  0  0  0  0  0  0  0
   -3.6060  -46.4080    8.7860 C   0  0  0  0  0  0  0  0  0  0  0  0
   -0.9600  -52.7650    7.1380 H   0  0  0  0  0  0  0  0  0  0  0  0
   -3.3730  -52.3890    6.6490 H   0  0  0  0  0  0  0  0  0  0  0  0
   -4.1770  -50.2210    5.8030 H   0  0  0  0  0  0  0  0  0  0  0  0
   -2.6280  -48.3250    5.4260 H   0  0  0  0  0  0  0  0  0  0  0  0
   -0.7130  -47.0500    4.8990 H   0  0  0  0  0  0  0  0  0  0  0  0
    1.0980  -46.9360    4.8650 H   0  0  0  0  0  0  0  0  0  0  0  0
    0.1570  -45.1380    6.2320 H   0  0  0  0  0  0  0  0  0  0  0  0
    1.1060  -46.2850    7.2790 H   0  0  0  0  0  0  0  0  0  0  0  0
   -0.8660  -45.6920    8.5220 H   0  0  0  0  0  0  0  0  0  0  0  0
   -1.2460  -47.3740    7.8240 H   0  0  0  0  0  0  0  0  0  0  0  0
   -2.8470  -46.9990    9.2860 H   0  0  0  0  0  0  0  0  0  0  0  0
   -5.6590  -44.9430    7.5280 C   0  0  0  0  0  0  0  0  0  0  0  0
   -4.3920  -44.9860    6.9380 C   0  0  0  0  0  0  0  0  0  0  0  0
   -4.1050  -44.2790    5.6470 C   0  0  0  0  0  0  0  0  0  0  0  0
   -5.3640  -44.0920    4.7940 C   0  0  0  0  0  0  0  0  0  0  0  0
   -6.5060  -43.4660    5.6000 C   0  0  0  0  0  0  0  0  0  0  0  0
   -6.8350  -44.2730    6.8650 C   0  0  0  0  0  0  0  0  0  0  0  0
   -5.0830  -46.8570   10.2950 H   0  0  0  0  0  0  0  0  0  0  0  0
   -6.8780  -45.5450    9.2130 H   0  0  0  0  0  0  0  0  0  0  0  0
   -3.3560  -44.8650    5.0590 H   0  0  0  0  0  0  0  0  0  0  0  0
   -3.6830  -43.2700    5.8700 H   0  0  0  0  0  0  0  0  0  0  0  0
   -5.7050  -45.0790    4.4130 H   0  0  0  0  0  0  0  0  0  0  0  0
   -5.1140  -43.4310    3.9350 H   0  0  0  0  0  0  0  0  0  0  0  0
   -6.2270  -42.4270    5.8810 H   0  0  0  0  0  0  0  0  0  0  0  0
   -7.4150  -43.4330    4.9580 H   0  0  0  0  0  0  0  0  0  0  0  0
   -7.3330  -43.5980    7.6010 H   0  0  0  0  0  0  0  0  0  0  0  0
   -7.5610  -45.0830    6.5900 H   0  0  0  0  0  0  0  0  0  0  0  0
    0.9660  -50.6370    6.7260 N   0  0  0  0  0  0  0  0  0  0  0  0
    1.5420  -51.4110    7.0370 H   0  0  0  0  0  0  0  0  0  0  0  0
  1  2  2  0  0  0  0
  2  3  1  0  0  0  0
  2  4  1  0  0  0  0
  4 11  2  0  0  0  0
  4 47  1  0  0  0  0
  5  6  2  0  0  0  0
  5 10  1  0  0  0  0
  5 47  1  0  0  0  0
  6  7  1  0  0  0  0
  6 20  1  0  0  0  0
  7  8  2  0  0  0  0
  7 21  1  0  0  0  0
  8  9  1  0  0  0  0
  8 22  1  0  0  0  0
  9 10  2  0  0  0  0
  9 23  1  0  0  0  0
 10 11  1  0  0  0  0
 11 12  1  0  0  0  0
 12 24  1  0  0  0  0
 12 25  1  0  0  0  0
 12 13  1  0  0  0  0
 13 14  1  0  0  0  0
 13 26  1  0  0  0  0
 13 27  1  0  0  0  0
 14 15  1  0  0  0  0
 14 28  1  0  0  0  0
 14 29  1  0  0  0  0
 15 16  1  0  0  0  0
 16 19  2  0  0  0  0
 16 32  1  0  0  0  0
 17 18  2  0  0  0  0
 17 31  1  0  0  0  0
 17 38  1  0  0  0  0
 18 19  1  0  0  0  0
 18 37  1  0  0  0  0
 19 30  1  0  0  0  0
 31 32  2  0  0  0  0
 31 36  1  0  0  0  0
 32 33  1  0  0  0  0
 33 34  1  0  0  0  0
 33 39  1  0  0  0  0
 33 40  1  0  0  0  0
 34 35  1  0  0  0  0
 34 41  1  0  0  0  0
 34 42  1  0  0  0  0
 35 36  1  0  0  0  0
 35 43  1  0  0  0  0
 35 44  1  0  0  0  0
 36 45  1  0  0  0  0
 36 46  1  0  0  0  0
 47 48  1  0  0  0  0
M  CHG  1   3  -1
M  END
$$$$
