p38a_2gg
 OpenBabel02232411163D
Structure written by MMmdl.
 48 51  0  0  0  0  0  0  0  0999 V2000
   38.2920   36.5580   17.1140 C   0  0  0  0  0  0  0  0  0  0  0  0
   34.5910   35.0560   21.1490 C   0  0  0  0  0  0  0  0  0  0  0  0
   37.4930   36.0860   18.1510 C   0  0  0  0  0  0  0  0  0  0  0  0
   34.1590   39.1070   23.7570 C   0  0  0  0  0  0  0  0  0  0  0  0
   34.6730   37.9330   21.3150 C   0  0  0  0  0  0  0  0  0  0  0  0
   35.0330   37.2860   20.0820 C   0  0  0  0  0  0  0  0  0  0  0  0
   37.6630   36.7300   15.8730 C   0  0  0  0  0  0  0  0  0  0  0  0
   36.3190   36.4290   15.6420 C   0  0  0  0  0  0  0  0  0  0  0  0
   35.5400   35.9410   16.6970 C   0  0  0  0  0  0  0  0  0  0  0  0
   34.3760   37.1500   22.4710 C   0  0  0  0  0  0  0  0  0  0  0  0
   34.6170   39.3430   21.4660 C   0  0  0  0  0  0  0  0  0  0  0  0
   35.0280   35.9350   20.0310 C   0  0  0  0  0  0  0  0  0  0  0  0
   36.1340   35.7630   17.9490 C   0  0  0  0  0  0  0  0  0  0  0  0
   34.0560   34.9590   23.6160 C   0  0  0  0  0  0  0  0  0  0  0  0
   38.0050   35.9410   19.3670 F   0  0  0  0  0  0  0  0  0  0  0  0
   35.3950   35.1280   18.9570 O   0  0  0  0  0  0  0  0  0  0  0  0
   34.3640   39.9410   22.6400 N   0  0  0  0  0  0  0  0  0  0  0  0
   34.4420   33.8560   21.0870 O   0  0  0  0  0  0  0  0  0  0  0  0
   34.3350   35.7500   22.3850 N   0  0  0  0  0  0  0  0  0  0  0  0
   34.1140   37.7330   23.6880 N   0  0  0  0  0  0  0  0  0  0  0  0
   34.0710   39.7490   24.9780 N   0  0  0  0  0  0  0  0  0  0  0  0
   39.3420   36.8210   17.2680 H   0  0  0  0  0  0  0  0  0  0  0  0
   35.3130   37.9150   19.2350 H   0  0  0  0  0  0  0  0  0  0  0  0
   35.8630   36.5860   14.6620 H   0  0  0  0  0  0  0  0  0  0  0  0
   34.4800   35.7220   16.5370 H   0  0  0  0  0  0  0  0  0  0  0  0
   34.7770   40.0010   20.5950 H   0  0  0  0  0  0  0  0  0  0  0  0
   34.8890   35.1050   24.3560 H   0  0  0  0  0  0  0  0  0  0  0  0
   33.0970   35.3130   24.0850 H   0  0  0  0  0  0  0  0  0  0  0  0
   33.9640   33.8710   23.3650 H   0  0  0  0  0  0  0  0  0  0  0  0
   33.9400   40.7820   24.9760 H   0  0  0  0  0  0  0  0  0  0  0  0
   38.3720   37.2470   14.8740 F   0  0  0  0  0  0  0  0  0  0  0  0
   34.2820   37.5190   28.1030 C   0  0  0  0  0  0  0  0  0  0  0  0
   34.5350   37.9310   26.6530 C   0  0  0  0  0  0  0  0  0  0  0  0
   33.6490   39.1360   26.2690 C   0  0  0  0  0  0  0  0  0  0  0  0
   32.1440   38.7710   26.2720 C   0  0  0  0  0  0  0  0  0  0  0  0
   31.6740   38.4390   27.6890 C   0  0  0  0  0  0  0  0  0  0  0  0
   34.5990   38.3620   28.7770 H   0  0  0  0  0  0  0  0  0  0  0  0
   34.9460   36.6500   28.3520 H   0  0  0  0  0  0  0  0  0  0  0  0
   34.3460   37.0700   25.9640 H   0  0  0  0  0  0  0  0  0  0  0  0
   35.6070   38.2340   26.5410 H   0  0  0  0  0  0  0  0  0  0  0  0
   33.8170   39.9590   27.0290 H   0  0  0  0  0  0  0  0  0  0  0  0
   31.5610   39.6500   25.8940 H   0  0  0  0  0  0  0  0  0  0  0  0
   31.9570   37.9150   25.5780 H   0  0  0  0  0  0  0  0  0  0  0  0
   31.7810   39.3580   28.3270 H   0  0  0  0  0  0  0  0  0  0  0  0
   30.5800   38.1960   27.6580 H   0  0  0  0  0  0  0  0  0  0  0  0
   32.5980   37.1160   28.3950 S   0  0  0  0  0  0  0  0  0  0  0  0
   32.2430   35.8240   27.7690 O   0  0  0  0  0  0  0  0  0  0  0  0
   32.3500   37.0510   29.8620 O   0  0  0  0  0  0  0  0  0  0  0  0
  1  3  2  0  0  0  0
  1  7  1  0  0  0  0
  1 22  1  0  0  0  0
  2 12  1  0  0  0  0
  2 18  2  0  0  0  0
  2 19  1  0  0  0  0
  3 13  1  0  0  0  0
  3 15  1  0  0  0  0
  4 17  2  0  0  0  0
  4 20  1  0  0  0  0
  4 21  1  0  0  0  0
  5  6  1  0  0  0  0
  5 10  1  0  0  0  0
  5 11  2  0  0  0  0
  6 12  2  0  0  0  0
  6 23  1  0  0  0  0
  7  8  2  0  0  0  0
  7 31  1  0  0  0  0
  8  9  1  0  0  0  0
  8 24  1  0  0  0  0
  9 13  2  0  0  0  0
  9 25  1  0  0  0  0
 10 19  1  0  0  0  0
 10 20  2  0  0  0  0
 11 17  1  0  0  0  0
 11 26  1  0  0  0  0
 12 16  1  0  0  0  0
 13 16  1  0  0  0  0
 14 19  1  0  0  0  0
 14 27  1  0  0  0  0
 14 28  1  0  0  0  0
 14 29  1  0  0  0  0
 21 30  1  0  0  0  0
 21 34  1  0  0  0  0
 32 33  1  0  0  0  0
 32 37  1  0  0  0  0
 32 38  1  0  0  0  0
 32 46  1  0  0  0  0
 33 34  1  0  0  0  0
 33 39  1  0  0  0  0
 33 40  1  0  0  0  0
 34 35  1  0  0  0  0
 34 41  1  0  0  0  0
 35 36  1  0  0  0  0
 35 42  1  0  0  0  0
 35 43  1  0  0  0  0
 36 44  1  0  0  0  0
 36 45  1  0  0  0  0
 36 46  1  0  0  0  0
 46 47  2  0  0  0  0
 46 48  2  0  0  0  0
M  END
$$$$
