6e
 OpenBabel02232411173D

 52 54  0  0  1  0  0  0  0  0999 V2000
   18.0280  -13.1100   21.4850 N   0  0  0  0  0  0  0  0  0  0  0  0
   17.8000  -11.7510   20.9050 C   0  0  2  0  0  0  0  0  0  0  0  0
   17.1590  -13.6500   22.3950 C   0  0  0  0  0  0  0  0  0  0  0  0
   16.1460  -13.0440   22.7400 O   0  0  0  0  0  0  0  0  0  0  0  0
   16.3660  -11.6180   20.3200 C   0  0  0  0  0  0  0  0  0  0  0  0
   15.7990  -12.4860   19.6780 O   0  0  0  0  0  0  0  0  0  0  0  0
   18.8760  -11.5870   19.8140 C   0  0  0  0  0  0  0  0  0  0  0  0
   17.4770  -15.0560   22.9760 C   0  0  2  0  0  0  0  0  0  0  0  0
   15.8010  -10.3700   20.5450 N   0  0  0  0  0  0  0  0  0  0  0  0
   19.9320  -12.6810   20.0530 C   0  0  0  0  0  0  0  0  0  0  0  0
   16.1760  -15.8800   22.9550 N   0  3  0  0  0  0  0  0  0  0  0  0
   17.9860  -14.9740   24.4280 C   0  0  0  0  0  0  0  0  0  0  0  0
   14.4000  -10.0230   20.2110 C   0  0  0  0  0  0  0  0  0  0  0  0
   19.2850  -13.7360   20.9700 C   0  0  0  0  0  0  0  0  0  0  0  0
   19.4350  -14.5580   24.5240 C   0  0  0  0  0  0  0  0  0  0  0  0
   13.3890  -10.6560   21.1330 C   0  0  0  0  0  0  0  0  0  0  0  0
   20.4450  -15.3720   23.9860 C   0  0  0  0  0  0  0  0  0  0  0  0
   12.9590  -11.9840   20.9540 C   0  0  0  0  0  0  0  0  0  0  0  0
   21.7870  -15.0120   24.1290 C   0  0  0  0  0  0  0  0  0  0  0  0
   11.9580  -12.5700   21.7330 C   0  0  0  0  0  0  0  0  0  0  0  0
   22.1360  -13.8330   24.7990 C   0  0  0  0  0  0  0  0  0  0  0  0
   11.3630  -11.8050   22.7360 C   0  0  0  0  0  0  0  0  0  0  0  0
   21.1340  -13.0220   25.3360 C   0  0  0  0  0  0  0  0  0  0  0  0
   11.8220  -10.5040   22.9650 C   0  0  0  0  0  0  0  0  0  0  0  0
   19.7900  -13.3930   25.2130 C   0  0  0  0  0  0  0  0  0  0  0  0
   12.8160   -9.9180   22.1780 C   0  0  0  0  0  0  0  0  0  0  0  0
   17.9710  -10.9920   21.7190 H   0  0  0  0  0  0  0  0  0  0  0  0
   18.4410  -11.6950   18.7950 H   0  0  0  0  0  0  0  0  0  0  0  0
   19.3350  -10.5810   19.9170 H   0  0  0  0  0  0  0  0  0  0  0  0
   18.2180  -15.6340   22.3500 H   0  0  0  0  0  0  0  0  0  0  0  0
   16.3080   -9.6810   21.1320 H   0  0  0  0  0  0  0  0  0  0  0  0
   20.2460  -13.1530   19.0910 H   0  0  0  0  0  0  0  0  0  0  0  0
   20.8360  -12.2520   20.5450 H   0  0  0  0  0  0  0  0  0  0  0  0
   16.3580  -16.8310   23.3940 H   0  0  0  0  0  0  0  0  0  0  0  0
   15.4060  -15.3730   23.5010 H   0  0  0  0  0  0  0  0  0  0  0  0
   15.8600  -16.0430   21.9580 H   0  0  0  0  0  0  0  0  0  0  0  0
   17.3380  -14.2790   25.0190 H   0  0  0  0  0  0  0  0  0  0  0  0
   17.9110  -15.9960   24.8980 H   0  0  0  0  0  0  0  0  0  0  0  0
   14.3290   -8.9000   20.2620 H   0  0  0  0  0  0  0  0  0  0  0  0
   14.1930  -10.3320   19.1460 H   0  0  0  0  0  0  0  0  0  0  0  0
   19.9630  -13.9900   21.8260 H   0  0  0  0  0  0  0  0  0  0  0  0
   19.0400  -14.6650   20.3940 H   0  0  0  0  0  0  0  0  0  0  0  0
   20.1820  -16.2960   23.4660 H   0  0  0  0  0  0  0  0  0  0  0  0
   13.5210  -12.7220   19.9990 F   0  0  0  0  0  0  0  0  0  0  0  0
   22.5580  -15.6690   23.7150 H   0  0  0  0  0  0  0  0  0  0  0  0
   11.6390  -13.6070   21.5820 H   0  0  0  0  0  0  0  0  0  0  0  0
   23.1900  -13.5620   24.9080 H   0  0  0  0  0  0  0  0  0  0  0  0
   21.3760  -12.0940   25.8590 H   0  0  0  0  0  0  0  0  0  0  0  0
   11.1410   -9.6250   24.2750 Cl  0  0  0  0  0  0  0  0  0  0  0  0
   19.0210  -12.7830   25.6800 H   0  0  0  0  0  0  0  0  0  0  0  0
   13.1360   -8.8920   22.3760 H   0  0  0  0  0  0  0  0  0  0  0  0
   10.5460  -12.2200   23.3350 H   0  0  0  0  0  0  0  0  0  0  0  0
  1  2  1  0  0  0  0
  1 14  1  0  0  0  0
  1  3  1  0  0  0  0
  2  5  1  0  0  0  0
  2  7  1  0  0  0  0
  2 27  1  1  0  0  0
  3  8  1  0  0  0  0
  3  4  2  0  0  0  0
  5  6  2  0  0  0  0
  5  9  1  0  0  0  0
  7 10  1  0  0  0  0
  7 28  1  0  0  0  0
  7 29  1  0  0  0  0
  8 11  1  0  0  0  0
  8 12  1  0  0  0  0
  8 30  1  6  0  0  0
  9 13  1  0  0  0  0
  9 31  1  0  0  0  0
 10 14  1  0  0  0  0
 10 32  1  0  0  0  0
 10 33  1  0  0  0  0
 11 34  1  0  0  0  0
 11 35  1  0  0  0  0
 11 36  1  0  0  0  0
 12 15  1  0  0  0  0
 12 37  1  0  0  0  0
 12 38  1  0  0  0  0
 13 16  1  0  0  0  0
 13 39  1  0  0  0  0
 13 40  1  0  0  0  0
 14 41  1  0  0  0  0
 14 42  1  0  0  0  0
 15 17  2  0  0  0  0
 15 25  1  0  0  0  0
 16 18  2  0  0  0  0
 16 26  1  0  0  0  0
 17 19  1  0  0  0  0
 17 43  1  0  0  0  0
 18 20  1  0  0  0  0
 18 44  1  0  0  0  0
 19 21  2  0  0  0  0
 19 45  1  0  0  0  0
 20 22  2  0  0  0  0
 20 46  1  0  0  0  0
 21 23  1  0  0  0  0
 21 47  1  0  0  0  0
 22 24  1  0  0  0  0
 22 52  1  0  0  0  0
 23 25  2  0  0  0  0
 23 48  1  0  0  0  0
 24 26  2  0  0  0  0
 24 49  1  0  0  0  0
 25 50  1  0  0  0  0
 26 51  1  0  0  0  0
M  CHG  1  11   1
M  END
$$$$
