p38a_2c
 OpenBabel02232411163D
Structure written by MMmdl.
 45 48  0  0  0  0  0  0  0  0999 V2000
   31.8520   38.9720   26.3580 C   0  0  0  0  0  0  0  0  0  0  0  0
   31.3510   38.3380   27.6620 C   0  0  0  0  0  0  0  0  0  0  0  0
   33.4090   38.8680   28.8130 C   0  0  0  0  0  0  0  0  0  0  0  0
   34.0000   39.5440   27.5700 C   0  0  0  0  0  0  0  0  0  0  0  0
   31.9670   38.9400   28.8240 O   0  0  0  0  0  0  0  0  0  0  0  0
   34.6370   35.2050   21.0450 C   0  0  0  0  0  0  0  0  0  0  0  0
   34.0990   39.0960   23.8850 C   0  0  0  0  0  0  0  0  0  0  0  0
   33.3950   38.9090   26.3000 C   0  0  0  0  0  0  0  0  0  0  0  0
   34.6800   38.0480   21.4090 C   0  0  0  0  0  0  0  0  0  0  0  0
   35.0010   37.4780   20.1400 C   0  0  0  0  0  0  0  0  0  0  0  0
   34.3960   37.1970   22.5210 C   0  0  0  0  0  0  0  0  0  0  0  0
   34.6020   39.4530   21.6210 C   0  0  0  0  0  0  0  0  0  0  0  0
   34.1340   34.9360   23.5200 C   0  0  0  0  0  0  0  0  0  0  0  0
   34.3290   39.9920   22.8120 N   0  0  0  0  0  0  0  0  0  0  0  0
   34.5460   33.9960   20.9640 O   0  0  0  0  0  0  0  0  0  0  0  0
   34.4070   35.8140   22.3480 N   0  0  0  0  0  0  0  0  0  0  0  0
   34.1000   37.7220   23.7610 N   0  0  0  0  0  0  0  0  0  0  0  0
   33.9020   39.6680   25.1180 N   0  0  0  0  0  0  0  0  0  0  0  0
   31.4130   38.4200   25.4940 H   0  0  0  0  0  0  0  0  0  0  0  0
   31.5220   40.0360   26.3030 H   0  0  0  0  0  0  0  0  0  0  0  0
   30.2730   38.5570   27.8330 H   0  0  0  0  0  0  0  0  0  0  0  0
   31.5500   37.2420   27.6740 H   0  0  0  0  0  0  0  0  0  0  0  0
   33.7200   37.7980   28.8710 H   0  0  0  0  0  0  0  0  0  0  0  0
   33.6830   39.4200   29.7420 H   0  0  0  0  0  0  0  0  0  0  0  0
   33.7800   40.6400   27.5930 H   0  0  0  0  0  0  0  0  0  0  0  0
   35.1110   39.4160   27.5700 H   0  0  0  0  0  0  0  0  0  0  0  0
   33.7300   37.8360   26.2220 H   0  0  0  0  0  0  0  0  0  0  0  0
   35.2640   38.1590   19.3230 H   0  0  0  0  0  0  0  0  0  0  0  0
   34.7490   40.1370   20.7700 H   0  0  0  0  0  0  0  0  0  0  0  0
   34.8340   35.1870   24.3630 H   0  0  0  0  0  0  0  0  0  0  0  0
   33.0800   35.0870   23.8800 H   0  0  0  0  0  0  0  0  0  0  0  0
   34.2750   33.8600   23.2360 H   0  0  0  0  0  0  0  0  0  0  0  0
   33.8190   40.7040   25.1860 H   0  0  0  0  0  0  0  0  0  0  0  0
   34.9720   36.1290   19.9560 C   0  0  0  0  0  0  0  0  0  0  0  0
   35.6500   34.7850   15.9540 C   0  0  0  0  0  0  0  0  0  0  0  0
   36.7050   35.3490   16.6770 C   0  0  0  0  0  0  0  0  0  0  0  0
   36.4910   35.7110   18.0080 C   0  0  0  0  0  0  0  0  0  0  0  0
   35.2330   35.5720   18.6180 C   0  0  0  0  0  0  0  0  0  0  0  0
   34.1940   34.9780   17.8820 C   0  0  0  0  0  0  0  0  0  0  0  0
   34.4050   34.5840   16.5590 C   0  0  0  0  0  0  0  0  0  0  0  0
   35.7960   34.5140   14.9090 H   0  0  0  0  0  0  0  0  0  0  0  0
   37.6710   35.5260   16.1970 H   0  0  0  0  0  0  0  0  0  0  0  0
   37.8160   36.3700   18.8960 Cl  0  0  0  0  0  0  0  0  0  0  0  0
   33.2030   34.8530   18.3280 H   0  0  0  0  0  0  0  0  0  0  0  0
   33.5790   34.1550   15.9830 H   0  0  0  0  0  0  0  0  0  0  0  0
  1  2  1  0  0  0  0
  1  8  1  0  0  0  0
  1 19  1  0  0  0  0
  1 20  1  0  0  0  0
  2  5  1  0  0  0  0
  2 21  1  0  0  0  0
  2 22  1  0  0  0  0
  3  4  1  0  0  0  0
  3  5  1  0  0  0  0
  3 23  1  0  0  0  0
  3 24  1  0  0  0  0
  4  8  1  0  0  0  0
  4 25  1  0  0  0  0
  4 26  1  0  0  0  0
  6 15  2  0  0  0  0
  6 16  1  0  0  0  0
  6 34  1  0  0  0  0
  7 14  2  0  0  0  0
  7 17  1  0  0  0  0
  7 18  1  0  0  0  0
  8 18  1  0  0  0  0
  8 27  1  0  0  0  0
  9 10  1  0  0  0  0
  9 11  1  0  0  0  0
  9 12  2  0  0  0  0
 10 28  1  0  0  0  0
 10 34  2  0  0  0  0
 11 16  1  0  0  0  0
 11 17  2  0  0  0  0
 12 14  1  0  0  0  0
 12 29  1  0  0  0  0
 13 16  1  0  0  0  0
 13 30  1  0  0  0  0
 13 31  1  0  0  0  0
 13 32  1  0  0  0  0
 18 33  1  0  0  0  0
 34 38  1  0  0  0  0
 35 36  2  0  0  0  0
 35 40  1  0  0  0  0
 35 41  1  0  0  0  0
 36 37  1  0  0  0  0
 36 42  1  0  0  0  0
 37 38  2  0  0  0  0
 37 43  1  0  0  0  0
 38 39  1  0  0  0  0
 39 40  2  0  0  0  0
 39 44  1  0  0  0  0
 40 45  1  0  0  0  0
M  END
$$$$
