2z
                    3D
 Schrodinger Suite 2022-3.
 45 47  0  0  1  0  0  0  0  0999 V2000
   15.9170   10.5070   31.6790 C   0  0  0  0  0  0  0  0  0  0  0  0
   21.3060   12.5850   31.2940 C   0  0  0  0  0  0  0  0  0  0  0  0
   17.2100   11.0090   31.8040 C   0  0  0  0  0  0  0  0  0  0  0  0
   24.0250    8.5920   31.1120 C   0  0  0  0  0  0  0  0  0  0  0  0
   26.5880    8.5370   31.2920 C   0  0  0  0  0  0  0  0  0  0  0  0
   21.5410    9.7550   30.7980 C   0  0  0  0  0  0  0  0  0  0  0  0
   20.2490   10.3790   30.7170 C   0  0  0  0  0  0  0  0  0  0  0  0
   15.2370   10.8100   30.4930 C   0  0  0  0  0  0  0  0  0  0  0  0
   15.7920   11.5740   29.4640 C   0  0  0  0  0  0  0  0  0  0  0  0
   17.0850   12.0820   29.6190 C   0  0  0  0  0  0  0  0  0  0  0  0
   22.6800   10.5190   31.1840 C   0  0  0  0  0  0  0  0  0  0  0  0
   21.7580    8.3780   30.5230 C   0  0  0  0  0  0  0  0  0  0  0  0
   20.1490   11.7010   30.9880 C   0  0  0  0  0  0  0  0  0  0  0  0
   17.7860   11.8130   30.7990 C   0  0  0  0  0  0  0  0  0  0  0  0
   23.7780   12.6740   31.7930 C   0  0  0  0  0  0  0  0  0  0  0  0
   17.9260   10.7200   32.8830 F   0  0  0  0  0  0  0  0  0  0  0  0
   14.0090   10.3200   30.3310 F   0  0  0  0  0  0  0  0  0  0  0  0
   18.9970   12.4810   31.0180 O   0  0  0  0  0  0  0  0  0  0  0  0
   22.9530    7.7880   30.6730 N   0  0  0  0  0  0  0  0  0  0  0  0
   21.2590   13.7860   31.4460 O   0  0  0  0  0  0  0  0  0  0  0  0
   22.5620   11.8970   31.4240 N   0  0  0  0  0  0  0  0  0  0  0  0
   23.9180    9.9410   31.3330 N   0  0  0  0  0  0  0  0  0  0  0  0
   25.2090    7.9190   31.4090 N   0  0  0  0  0  0  0  0  0  0  0  0
   15.2400   11.7680   28.5420 H   0  0  0  0  0  0  0  0  0  0  0  0
   17.5400   12.6780   28.8210 H   0  0  0  0  0  0  0  0  0  0  0  0
   15.4750    9.8800   32.4530 H   0  0  0  0  0  0  0  0  0  0  0  0
   19.3930    9.7600   30.4430 H   0  0  0  0  0  0  0  0  0  0  0  0
   20.9270    7.7520   30.1600 H   0  0  0  0  0  0  0  0  0  0  0  0
   24.4810   12.7210   30.9170 H   0  0  0  0  0  0  0  0  0  0  0  0
   23.4970   13.7150   32.0960 H   0  0  0  0  0  0  0  0  0  0  0  0
   24.3100   12.1730   32.6470 H   0  0  0  0  0  0  0  0  0  0  0  0
   25.2280    6.9240   31.0650 H   0  0  0  0  0  0  0  0  0  0  0  0
   27.5420    7.5210   32.0110 C   0  0  0  0  0  0  0  0  0  0  0  0
   27.4460    6.4990   31.5780 H   0  0  0  0  0  0  0  0  0  0  0  0
   28.5970    7.8740   31.9500 H   0  0  0  0  0  0  0  0  0  0  0  0
   27.2860    7.4340   33.4200 O   0  0  0  0  0  0  0  0  0  0  0  0
   26.3060    7.3740   33.5480 H   0  0  0  0  0  0  0  0  0  0  0  0
   26.9600    8.6200   29.8020 C   0  0  0  0  0  0  0  0  0  0  0  0
   27.9940    9.0190   29.6920 H   0  0  0  0  0  0  0  0  0  0  0  0
   26.2760    9.3110   29.2610 H   0  0  0  0  0  0  0  0  0  0  0  0
   26.8990    7.6180   29.3270 H   0  0  0  0  0  0  0  0  0  0  0  0
   26.7140    9.9110   31.9490 C   0  0  0  0  0  0  0  0  0  0  0  0
   26.2410   10.7030   31.3230 H   0  0  0  0  0  0  0  0  0  0  0  0
   26.2390    9.9210   32.9490 H   0  0  0  0  0  0  0  0  0  0  0  0
   27.7930   10.1710   32.0650 H   0  0  0  0  0  0  0  0  0  0  0  0
  1  3  1  0  0  0  0
  1  8  2  0  0  0  0
  1 26  1  0  0  0  0
  2 13  1  0  0  0  0
  2 20  2  0  0  0  0
  2 21  1  0  0  0  0
  3 14  2  0  0  0  0
  3 16  1  0  0  0  0
  4 19  1  0  0  0  0
  4 22  2  0  0  0  0
  4 23  1  0  0  0  0
  5 23  1  0  0  0  0
  5 33  1  0  0  0  0
  5 38  1  0  0  0  0
  5 42  1  0  0  0  0
  6  7  1  0  0  0  0
  6 11  2  0  0  0  0
  6 12  1  0  0  0  0
  7 13  2  0  0  0  0
  7 27  1  0  0  0  0
  8  9  1  0  0  0  0
  8 17  1  0  0  0  0
  9 10  2  0  0  0  0
  9 24  1  0  0  0  0
 10 14  1  0  0  0  0
 10 25  1  0  0  0  0
 11 21  1  0  0  0  0
 11 22  1  0  0  0  0
 12 19  2  0  0  0  0
 12 28  1  0  0  0  0
 13 18  1  0  0  0  0
 14 18  1  0  0  0  0
 15 21  1  0  0  0  0
 15 29  1  0  0  0  0
 15 30  1  0  0  0  0
 15 31  1  0  0  0  0
 23 32  1  0  0  0  0
 33 34  1  0  0  0  0
 33 35  1  0  0  0  0
 33 36  1  0  0  0  0
 36 37  1  0  0  0  0
 38 39  1  0  0  0  0
 38 40  1  0  0  0  0
 38 41  1  0  0  0  0
 42 43  1  0  0  0  0
 42 44  1  0  0  0  0
 42 45  1  0  0  0  0
M  END
$$$$
