jmc_23
 OpenBabel02232411173D
Structure written by MMmdl.
 36 38  0  0  1  0  0  0  0  0999 V2000
   -1.5450   21.5360  -27.5800 C   0  0  0  0  0  0  0  0  0  0  0  0
   -1.0650   22.6170  -28.3210 C   0  0  0  0  0  0  0  0  0  0  0  0
   -1.8670   23.1710  -29.3220 C   0  0  0  0  0  0  0  0  0  0  0  0
   -3.1400   22.6670  -29.6130 C   0  0  0  0  0  0  0  0  0  0  0  0
   -3.5990   21.5850  -28.8450 C   0  0  0  0  0  0  0  0  0  0  0  0
   -2.8180   21.0190  -27.8360 C   0  0  0  0  0  0  0  0  0  0  0  0
   -5.1520   20.9320  -29.1600 Cl  0  0  0  0  0  0  0  0  0  0  0  0
   -4.0040   23.1750  -30.7310 C   0  0  0  0  0  0  0  0  0  0  0  0
   -4.4010   22.4550  -31.6210 O   0  0  0  0  0  0  0  0  0  0  0  0
   -4.3300   24.5440  -30.6240 N   0  0  0  0  0  0  0  0  0  0  0  0
   -5.1780   25.2810  -31.4980 C   0  0  0  0  0  0  0  0  0  0  0  0
   -5.8330   24.7150  -32.6030 C   0  0  0  0  0  0  0  0  0  0  0  0
   -6.6850   25.5280  -33.3640 C   0  0  0  0  0  0  0  0  0  0  0  0
   -6.8930   26.8430  -33.1040 N   0  0  0  0  0  0  0  0  0  0  0  0
   -6.2320   27.3890  -32.0230 C   0  0  0  0  0  0  0  0  0  0  0  0
   -5.3730   26.6470  -31.1990 C   0  0  0  0  0  0  0  0  0  0  0  0
   -6.5250   28.7640  -31.7880 N   0  0  0  0  0  0  0  0  0  0  0  0
   -5.7120   29.6670  -31.0590 C   0  0  0  0  0  0  0  0  0  0  0  0
   -4.6530   29.3160  -30.5750 O   0  0  0  0  0  0  0  0  0  0  0  0
   -6.2920   31.0400  -30.9340 C   0  0  1  0  0  0  0  0  0  0  0  0
   -5.7910   31.9570  -29.8140 C   0  0  0  0  0  0  0  0  0  0  0  0
   -5.4790   32.3000  -31.2480 C   0  0  1  0  0  0  0  0  0  0  0  0
   -4.2130   32.1350  -31.6830 F   0  0  0  0  0  0  0  0  0  0  0  0
   -1.2430   24.5090  -30.1940 Cl  0  0  0  0  0  0  0  0  0  0  0  0
   -7.3650   31.1160  -31.1890 H   0  0  0  0  0  0  0  0  0  0  0  0
   -5.9640   33.1460  -31.7540 H   0  0  0  0  0  0  0  0  0  0  0  0
   -0.9220   21.0940  -26.7940 H   0  0  0  0  0  0  0  0  0  0  0  0
   -0.0720   23.0230  -28.1030 H   0  0  0  0  0  0  0  0  0  0  0  0
   -3.1870   20.1850  -27.2370 H   0  0  0  0  0  0  0  0  0  0  0  0
   -3.9320   25.0710  -29.8250 H   0  0  0  0  0  0  0  0  0  0  0  0
   -5.7140   23.6610  -32.8690 H   0  0  0  0  0  0  0  0  0  0  0  0
   -7.2340   25.1110  -34.2240 H   0  0  0  0  0  0  0  0  0  0  0  0
   -4.8660   27.1170  -30.3520 H   0  0  0  0  0  0  0  0  0  0  0  0
   -7.4380   29.1060  -32.1650 H   0  0  0  0  0  0  0  0  0  0  0  0
   -6.5370   32.5760  -29.2900 H   0  0  0  0  0  0  0  0  0  0  0  0
   -4.9990   31.6050  -29.1370 H   0  0  0  0  0  0  0  0  0  0  0  0
  1  2  2  0  0  0  0
  1  6  1  0  0  0  0
  1 27  1  0  0  0  0
  2  3  1  0  0  0  0
  2 28  1  0  0  0  0
  3  4  2  0  0  0  0
  3 24  1  0  0  0  0
  4  5  1  0  0  0  0
  4  8  1  0  0  0  0
  5  6  2  0  0  0  0
  5  7  1  0  0  0  0
  6 29  1  0  0  0  0
  8  9  2  0  0  0  0
  8 10  1  0  0  0  0
 10 11  1  0  0  0  0
 10 30  1  0  0  0  0
 11 12  2  0  0  0  0
 11 16  1  0  0  0  0
 12 13  1  0  0  0  0
 12 31  1  0  0  0  0
 13 14  2  0  0  0  0
 13 32  1  0  0  0  0
 14 15  1  0  0  0  0
 15 16  2  0  0  0  0
 15 17  1  0  0  0  0
 16 33  1  0  0  0  0
 17 18  1  0  0  0  0
 17 34  1  0  0  0  0
 18 19  2  0  0  0  0
 18 20  1  0  0  0  0
 20 21  1  0  0  0  0
 20 22  1  0  0  0  0
 20 25  1  6  0  0  0
 21 22  1  0  0  0  0
 21 35  1  0  0  0  0
 21 36  1  0  0  0  0
 22 23  1  0  0  0  0
 22 26  1  6  0  0  0
M  END
$$$$
