27
 OpenBabel02232411163D
Structure written by MMmdl.
 38 40  0  0  0  0  0  0  0  0999 V2000
    3.2860  -47.9530    7.1760 O   0  0  0  0  0  0  0  0  0  0  0  0
    2.9550  -49.1170    6.9080 C   0  0  0  0  0  0  0  0  0  0  0  0
    3.7160  -50.1050    6.8480 O   0  5  0  0  0  0  0  0  0  0  0  0
    1.4770  -49.4140    6.6090 C   0  0  0  0  0  0  0  0  0  0  0  0
   -0.3820  -50.7370    6.4950 C   0  0  0  0  0  0  0  0  0  0  0  0
   -1.3260  -51.7760    6.6020 C   0  0  0  0  0  0  0  0  0  0  0  0
   -2.6140  -51.5160    6.1640 C   0  0  0  0  0  0  0  0  0  0  0  0
   -2.9560  -50.2620    5.6020 C   0  0  0  0  0  0  0  0  0  0  0  0
   -2.0260  -49.2390    5.4830 C   0  0  0  0  0  0  0  0  0  0  0  0
   -0.7200  -49.4380    5.9620 C   0  0  0  0  0  0  0  0  0  0  0  0
    0.4650  -48.6170    6.0770 C   0  0  0  0  0  0  0  0  0  0  0  0
    0.5890  -47.1840    5.6970 C   0  0  0  0  0  0  0  0  0  0  0  0
   -0.5300  -46.2720    6.2400 C   0  0  0  0  0  0  0  0  0  0  0  0
   -0.7240  -46.3370    7.7490 C   0  0  0  0  0  0  0  0  0  0  0  0
   -1.8220  -47.2340    8.1150 O   0  0  0  0  0  0  0  0  0  0  0  0
   -3.0720  -46.7130    8.3020 C   0  0  0  0  0  0  0  0  0  0  0  0
   -3.5680  -45.5560    7.6810 C   0  0  0  0  0  0  0  0  0  0  0  0
   -4.8740  -45.1460    7.9690 C   0  0  0  0  0  0  0  0  0  0  0  0
   -5.6690  -45.8590    8.8670 C   0  0  0  0  0  0  0  0  0  0  0  0
   -5.1690  -47.0280    9.4600 C   0  0  0  0  0  0  0  0  0  0  0  0
   -3.8790  -47.4670    9.1870 C   0  0  0  0  0  0  0  0  0  0  0  0
   -1.0610  -52.7480    7.0180 H   0  0  0  0  0  0  0  0  0  0  0  0
   -3.3860  -52.2820    6.2460 H   0  0  0  0  0  0  0  0  0  0  0  0
   -3.9780  -50.1090    5.2550 H   0  0  0  0  0  0  0  0  0  0  0  0
   -2.3190  -48.3000    5.0150 H   0  0  0  0  0  0  0  0  0  0  0  0
    0.5710  -47.1030    4.5840 H   0  0  0  0  0  0  0  0  0  0  0  0
    1.5760  -46.7900    6.0640 H   0  0  0  0  0  0  0  0  0  0  0  0
   -0.2740  -45.2200    5.9820 H   0  0  0  0  0  0  0  0  0  0  0  0
   -1.4960  -46.5300    5.7440 H   0  0  0  0  0  0  0  0  0  0  0  0
   -0.9100  -45.3420    8.2040 H   0  0  0  0  0  0  0  0  0  0  0  0
    0.1210  -46.8690    8.2440 H   0  0  0  0  0  0  0  0  0  0  0  0
   -2.9760  -44.9850    6.9730 H   0  0  0  0  0  0  0  0  0  0  0  0
   -3.5000  -48.3780    9.6450 H   0  0  0  0  0  0  0  0  0  0  0  0
    0.9680  -50.7010    6.8650 N   0  0  0  0  0  0  0  0  0  0  0  0
    1.4690  -51.4970    7.2450 H   0  0  0  0  0  0  0  0  0  0  0  0
   -5.8040  -47.5950   10.1440 H   0  0  0  0  0  0  0  0  0  0  0  0
   -6.6780  -45.5210    9.0950 H   0  0  0  0  0  0  0  0  0  0  0  0
   -5.2830  -44.2590    7.4800 H   0  0  0  0  0  0  0  0  0  0  0  0
  1  2  2  0  0  0  0
  2  3  1  0  0  0  0
  2  4  1  0  0  0  0
  4 11  2  0  0  0  0
  4 34  1  0  0  0  0
  5  6  2  0  0  0  0
  5 10  1  0  0  0  0
  5 34  1  0  0  0  0
  6  7  1  0  0  0  0
  6 22  1  0  0  0  0
  7  8  2  0  0  0  0
  7 23  1  0  0  0  0
  8  9  1  0  0  0  0
  8 24  1  0  0  0  0
  9 10  2  0  0  0  0
  9 25  1  0  0  0  0
 10 11  1  0  0  0  0
 11 12  1  0  0  0  0
 12 26  1  0  0  0  0
 12 27  1  0  0  0  0
 12 13  1  0  0  0  0
 13 14  1  0  0  0  0
 13 28  1  0  0  0  0
 13 29  1  0  0  0  0
 14 15  1  0  0  0  0
 14 30  1  0  0  0  0
 14 31  1  0  0  0  0
 15 16  1  0  0  0  0
 16 17  2  0  0  0  0
 16 21  1  0  0  0  0
 17 18  1  0  0  0  0
 17 32  1  0  0  0  0
 18 19  2  0  0  0  0
 18 38  1  0  0  0  0
 19 20  1  0  0  0  0
 19 37  1  0  0  0  0
 20 21  2  0  0  0  0
 20 36  1  0  0  0  0
 21 33  1  0  0  0  0
 34 35  1  0  0  0  0
M  CHG  1   3  -1
M  END
$$$$
