18624-1
 OpenBabel02232411163D
Structure written by MMmdl.
 38 39  0  0  0  0  0  0  0  0999 V2000
   24.4510   11.0800   30.7760 C   0  0  0  0  0  0  0  0  0  0  0  0
   23.1080   11.2850   30.1090 C   0  0  0  0  0  0  0  0  0  0  0  0
   22.0320   11.3060   31.1230 O   0  0  0  0  0  0  0  0  0  0  0  0
   21.4680   10.1430   31.5210 C   0  0  0  0  0  0  0  0  0  0  0  0
   21.9570    8.9630   31.0740 N   0  0  0  0  0  0  0  0  0  0  0  0
   21.2750    7.8090   31.4330 C   0  0  0  0  0  0  0  0  0  0  0  0
   20.1470    7.8240   32.2460 C   0  0  0  0  0  0  0  0  0  0  0  0
   19.6440    9.0680   32.7170 C   0  0  0  0  0  0  0  0  0  0  0  0
   18.5060    9.0980   33.4820 N   0  0  0  0  0  0  0  0  0  0  0  0
   20.3210   10.2770   32.3590 C   0  0  0  0  0  0  0  0  0  0  0  0
   19.8980   11.5680   32.7390 C   0  0  0  0  0  0  0  0  0  0  0  0
   19.6030   12.6570   33.0090 N   0  0  0  0  0  0  0  0  0  0  0  0
   21.8600    6.6580   30.8520 N   0  0  0  0  0  0  0  0  0  0  0  0
   21.3430    5.3370   30.8560 C   0  0  0  0  0  0  0  0  0  0  0  0
   20.3220    5.0380   31.4370 O   0  0  0  0  0  0  0  0  0  0  0  0
   22.1650    4.3680   30.0180 C   0  0  0  0  0  0  0  0  0  0  0  0
   23.4600    3.9960   30.6900 C   0  0  0  0  0  0  0  0  0  0  0  0
   24.6210    4.7510   30.4590 C   0  0  0  0  0  0  0  0  0  0  0  0
   25.8160    4.4150   31.1020 C   0  0  0  0  0  0  0  0  0  0  0  0
   25.8650    3.3230   31.9730 C   0  0  0  0  0  0  0  0  0  0  0  0
   24.7160    2.5560   32.1870 C   0  0  0  0  0  0  0  0  0  0  0  0
   23.5190    2.8840   31.5440 C   0  0  0  0  0  0  0  0  0  0  0  0
   24.4810   10.1150   31.3350 H   0  0  0  0  0  0  0  0  0  0  0  0
   24.6810   11.9130   31.4750 H   0  0  0  0  0  0  0  0  0  0  0  0
   25.2480   11.0410   29.9920 H   0  0  0  0  0  0  0  0  0  0  0  0
   22.9910   12.3160   29.6960 H   0  0  0  0  0  0  0  0  0  0  0  0
   22.8910   10.5070   29.3430 H   0  0  0  0  0  0  0  0  0  0  0  0
   19.6280    6.9000   32.5110 H   0  0  0  0  0  0  0  0  0  0  0  0
   18.0160    8.2230   33.7510 H   0  0  0  0  0  0  0  0  0  0  0  0
   18.0960    9.9800   33.7890 H   0  0  0  0  0  0  0  0  0  0  0  0
   22.7370    6.8380   30.3240 H   0  0  0  0  0  0  0  0  0  0  0  0
   21.5540    3.4440   29.8430 H   0  0  0  0  0  0  0  0  0  0  0  0
   22.3760    4.8320   29.0180 H   0  0  0  0  0  0  0  0  0  0  0  0
   24.6130    5.5990   29.7710 H   0  0  0  0  0  0  0  0  0  0  0  0
   26.7170    5.0090   30.9170 H   0  0  0  0  0  0  0  0  0  0  0  0
   26.8000    3.0670   32.4780 H   0  0  0  0  0  0  0  0  0  0  0  0
   24.7560    1.6910   32.8580 H   0  0  0  0  0  0  0  0  0  0  0  0
   22.6380    2.2600   31.7080 H   0  0  0  0  0  0  0  0  0  0  0  0
  1  2  1  0  0  0  0
  1 23  1  0  0  0  0
  1 24  1  0  0  0  0
  1 25  1  0  0  0  0
  2  3  1  0  0  0  0
  2 26  1  0  0  0  0
  2 27  1  0  0  0  0
  3  4  1  0  0  0  0
  4 10  2  0  0  0  0
  4  5  1  0  0  0  0
  5  6  2  0  0  0  0
  6  7  1  0  0  0  0
  6 13  1  0  0  0  0
  7  8  2  0  0  0  0
  7 28  1  0  0  0  0
  8  9  1  0  0  0  0
  8 10  1  0  0  0  0
  9 29  1  0  0  0  0
  9 30  1  0  0  0  0
 10 11  1  0  0  0  0
 11 12  3  0  0  0  0
 13 14  1  0  0  0  0
 13 31  1  0  0  0  0
 14 15  2  0  0  0  0
 14 16  1  0  0  0  0
 16 17  1  0  0  0  0
 16 32  1  0  0  0  0
 16 33  1  0  0  0  0
 17 22  2  0  0  0  0
 17 18  1  0  0  0  0
 18 19  2  0  0  0  0
 18 34  1  0  0  0  0
 19 20  1  0  0  0  0
 19 35  1  0  0  0  0
 20 21  2  0  0  0  0
 20 36  1  0  0  0  0
 21 22  1  0  0  0  0
 21 37  1  0  0  0  0
 22 38  1  0  0  0  0
M  END
$$$$
