18628-1
 OpenBabel02232411163D
Structure written by MMmdl.
 41 42  0  0  0  0  0  0  0  0999 V2000
   23.2160   10.8250   29.0840 C   0  0  0  0  0  0  0  0  0  0  0  0
   23.4720   11.0620   30.5570 C   0  0  0  0  0  0  0  0  0  0  0  0
   22.1970   11.1380   31.3010 O   0  0  0  0  0  0  0  0  0  0  0  0
   21.5550    9.9990   31.6420 C   0  0  0  0  0  0  0  0  0  0  0  0
   22.0410    8.8060   31.2320 N   0  0  0  0  0  0  0  0  0  0  0  0
   21.3080    7.6710   31.5460 C   0  0  0  0  0  0  0  0  0  0  0  0
   20.1370    7.7140   32.2930 C   0  0  0  0  0  0  0  0  0  0  0  0
   19.6470    8.9700   32.7440 C   0  0  0  0  0  0  0  0  0  0  0  0
   18.4870    9.0240   33.4730 N   0  0  0  0  0  0  0  0  0  0  0  0
   20.3640   10.1640   32.4100 C   0  0  0  0  0  0  0  0  0  0  0  0
   19.9530   11.4670   32.7640 C   0  0  0  0  0  0  0  0  0  0  0  0
   19.6680   12.5630   33.0130 N   0  0  0  0  0  0  0  0  0  0  0  0
   21.9010    6.5120   30.9910 N   0  0  0  0  0  0  0  0  0  0  0  0
   21.3190    5.2260   30.8670 C   0  0  0  0  0  0  0  0  0  0  0  0
   20.2590    4.9430   31.3820 O   0  0  0  0  0  0  0  0  0  0  0  0
   22.1180    4.2820   29.9790 C   0  0  0  0  0  0  0  0  0  0  0  0
   23.4250    3.8740   30.6050 C   0  0  0  0  0  0  0  0  0  0  0  0
   24.6510    4.5160   30.3380 C   0  0  0  0  0  0  0  0  0  0  0  0
   24.8370    5.6200   29.3450 C   0  0  0  0  0  0  0  0  0  0  0  0
   25.8030    4.0970   31.0350 C   0  0  0  0  0  0  0  0  0  0  0  0
   25.7560    3.0530   31.9540 C   0  0  0  0  0  0  0  0  0  0  0  0
   24.5470    2.3850   32.1800 C   0  0  0  0  0  0  0  0  0  0  0  0
   23.3980    2.7910   31.5040 C   0  0  0  0  0  0  0  0  0  0  0  0
   24.1710   10.9640   28.5180 H   0  0  0  0  0  0  0  0  0  0  0  0
   22.8540    9.7860   28.8960 H   0  0  0  0  0  0  0  0  0  0  0  0
   22.4690   11.5430   28.6790 H   0  0  0  0  0  0  0  0  0  0  0  0
   23.8560   12.0920   30.7580 H   0  0  0  0  0  0  0  0  0  0  0  0
   24.1200   10.2760   31.0060 H   0  0  0  0  0  0  0  0  0  0  0  0
   19.5810    6.8040   32.5270 H   0  0  0  0  0  0  0  0  0  0  0  0
   18.0930    9.9140   33.7790 H   0  0  0  0  0  0  0  0  0  0  0  0
   17.9910    8.1580   33.7570 H   0  0  0  0  0  0  0  0  0  0  0  0
   22.8320    6.6740   30.5600 H   0  0  0  0  0  0  0  0  0  0  0  0
   22.2790    4.7750   28.9880 H   0  0  0  0  0  0  0  0  0  0  0  0
   21.4960    3.3650   29.7970 H   0  0  0  0  0  0  0  0  0  0  0  0
   25.1170    6.5690   29.8770 H   0  0  0  0  0  0  0  0  0  0  0  0
   25.6930    5.3710   28.6630 H   0  0  0  0  0  0  0  0  0  0  0  0
   23.9540    5.8190   28.7080 H   0  0  0  0  0  0  0  0  0  0  0  0
   26.7560    4.6030   30.8470 H   0  0  0  0  0  0  0  0  0  0  0  0
   26.6610    2.7500   32.4880 H   0  0  0  0  0  0  0  0  0  0  0  0
   24.5080    1.5480   32.8820 H   0  0  0  0  0  0  0  0  0  0  0  0
   22.4680    2.2450   31.6770 H   0  0  0  0  0  0  0  0  0  0  0  0
  1  2  1  0  0  0  0
  1 24  1  0  0  0  0
  1 25  1  0  0  0  0
  1 26  1  0  0  0  0
  2  3  1  0  0  0  0
  2 27  1  0  0  0  0
  2 28  1  0  0  0  0
  3  4  1  0  0  0  0
  4 10  2  0  0  0  0
  4  5  1  0  0  0  0
  5  6  2  0  0  0  0
  6  7  1  0  0  0  0
  6 13  1  0  0  0  0
  7  8  2  0  0  0  0
  7 29  1  0  0  0  0
  8  9  1  0  0  0  0
  8 10  1  0  0  0  0
  9 30  1  0  0  0  0
  9 31  1  0  0  0  0
 10 11  1  0  0  0  0
 11 12  3  0  0  0  0
 13 14  1  0  0  0  0
 13 32  1  0  0  0  0
 14 15  2  0  0  0  0
 14 16  1  0  0  0  0
 16 17  1  0  0  0  0
 16 33  1  0  0  0  0
 16 34  1  0  0  0  0
 17 23  2  0  0  0  0
 17 18  1  0  0  0  0
 18 19  1  0  0  0  0
 18 20  2  0  0  0  0
 19 35  1  0  0  0  0
 19 36  1  0  0  0  0
 19 37  1  0  0  0  0
 20 21  1  0  0  0  0
 20 38  1  0  0  0  0
 21 22  2  0  0  0  0
 21 39  1  0  0  0  0
 22 23  1  0  0  0  0
 22 40  1  0  0  0  0
 23 41  1  0  0  0  0
M  END
$$$$
