27
                    3D
 Schrodinger Suite 2022-3.
 38 40  0  0  1  0  0  0  0  0999 V2000
    3.3310  -48.2480    7.1930 O   0  0  0  0  0  0  0  0  0  0  0  0
    2.9380  -49.1950    6.4990 C   0  0  0  0  0  0  0  0  0  0  0  0
    3.6460  -49.9850    5.8440 O   0  5  0  0  0  0  0  0  0  0  0  0
    1.4250  -49.4830    6.4360 C   0  0  0  0  0  0  0  0  0  0  0  0
   -0.4300  -50.8180    6.5880 C   0  0  0  0  0  0  0  0  0  0  0  0
   -1.3450  -51.8640    6.7930 C   0  0  0  0  0  0  0  0  0  0  0  0
   -2.6780  -51.6130    6.5030 C   0  0  0  0  0  0  0  0  0  0  0  0
   -3.0990  -50.3530    6.0180 C   0  0  0  0  0  0  0  0  0  0  0  0
   -2.1990  -49.3150    5.8140 C   0  0  0  0  0  0  0  0  0  0  0  0
   -0.8400  -49.5240    6.1010 C   0  0  0  0  0  0  0  0  0  0  0  0
    0.3490  -48.7010    6.0290 C   0  0  0  0  0  0  0  0  0  0  0  0
    0.3460  -47.2800    5.5920 C   0  0  0  0  0  0  0  0  0  0  0  0
    0.2390  -46.2900    6.7670 C   0  0  0  0  0  0  0  0  0  0  0  0
   -1.1120  -46.3220    7.4800 C   0  0  0  0  0  0  0  0  0  0  0  0
   -2.0210  -45.6800    6.5120 O   0  0  0  0  0  0  0  0  0  0  0  0
   -3.2900  -45.3710    6.9040 C   0  0  0  0  0  0  0  0  0  0  0  0
   -3.9840  -44.5650    5.9700 C   0  0  0  0  0  0  0  0  0  0  0  0
   -5.2860  -44.1730    6.2580 C   0  0  0  0  0  0  0  0  0  0  0  0
   -5.9040  -44.5710    7.4530 C   0  0  0  0  0  0  0  0  0  0  0  0
   -5.2110  -45.3770    8.3590 C   0  0  0  0  0  0  0  0  0  0  0  0
   -3.9000  -45.7880    8.0990 C   0  0  0  0  0  0  0  0  0  0  0  0
   -1.0270  -52.8360    7.1690 H   0  0  0  0  0  0  0  0  0  0  0  0
   -3.4230  -52.3950    6.6510 H   0  0  0  0  0  0  0  0  0  0  0  0
   -4.1570  -50.2030    5.8030 H   0  0  0  0  0  0  0  0  0  0  0  0
   -2.5510  -48.3530    5.4390 H   0  0  0  0  0  0  0  0  0  0  0  0
   -0.5320  -47.1100    4.9150 H   0  0  0  0  0  0  0  0  0  0  0  0
    1.2780  -47.0410    5.0240 H   0  0  0  0  0  0  0  0  0  0  0  0
    0.3910  -45.2540    6.3800 H   0  0  0  0  0  0  0  0  0  0  0  0
    1.0290  -46.5230    7.5200 H   0  0  0  0  0  0  0  0  0  0  0  0
   -1.1110  -45.6960    8.3970 H   0  0  0  0  0  0  0  0  0  0  0  0
   -1.4960  -47.3490    7.6530 H   0  0  0  0  0  0  0  0  0  0  0  0
   -3.5030  -44.2640    5.0440 H   0  0  0  0  0  0  0  0  0  0  0  0
   -3.3970  -46.4330    8.8140 H   0  0  0  0  0  0  0  0  0  0  0  0
    0.9590  -50.7650    6.7890 N   0  0  0  0  0  0  0  0  0  0  0  0
    1.5050  -51.5540    7.1140 H   0  0  0  0  0  0  0  0  0  0  0  0
   -5.7040  -45.6940    9.2810 H   0  0  0  0  0  0  0  0  0  0  0  0
   -6.9250  -44.2610    7.6660 H   0  0  0  0  0  0  0  0  0  0  0  0
   -5.8370  -43.5520    5.5490 H   0  0  0  0  0  0  0  0  0  0  0  0
  1  2  2  0  0  0  0
  2  3  1  0  0  0  0
  2  4  1  0  0  0  0
  4 11  2  0  0  0  0
  4 34  1  0  0  0  0
  5  6  1  0  0  0  0
  5 10  2  0  0  0  0
  5 34  1  0  0  0  0
  6  7  2  0  0  0  0
  6 22  1  0  0  0  0
  7  8  1  0  0  0  0
  7 23  1  0  0  0  0
  8  9  2  0  0  0  0
  8 24  1  0  0  0  0
  9 10  1  0  0  0  0
  9 25  1  0  0  0  0
 10 11  1  0  0  0  0
 11 12  1  0  0  0  0
 12 26  1  0  0  0  0
 12 27  1  0  0  0  0
 12 13  1  0  0  0  0
 13 14  1  0  0  0  0
 13 28  1  0  0  0  0
 13 29  1  0  0  0  0
 14 15  1  0  0  0  0
 14 30  1  0  0  0  0
 14 31  1  0  0  0  0
 15 16  1  0  0  0  0
 16 17  1  0  0  0  0
 16 21  2  0  0  0  0
 17 18  2  0  0  0  0
 17 32  1  0  0  0  0
 18 19  1  0  0  0  0
 18 38  1  0  0  0  0
 19 20  2  0  0  0  0
 19 37  1  0  0  0  0
 20 21  1  0  0  0  0
 20 36  1  0  0  0  0
 21 33  1  0  0  0  0
 34 35  1  0  0  0  0
M  CHG  1   3  -1
M  END
$$$$
