18638-1 flip
                    3D
 Schrodinger Suite 2022-3.
 52 53  0  0  1  0  0  0  0  0999 V2000
   25.3150    2.4120   31.1450 C   0  0  0  0  0  0  0  0  0  0  0  0
   23.9850    2.7920   31.0070 C   0  0  0  0  0  0  0  0  0  0  0  0
   23.6200    3.9770   30.3000 C   0  0  0  0  0  0  0  0  0  0  0  0
   24.6410    4.7870   29.8310 C   0  0  0  0  0  0  0  0  0  0  0  0
   26.0030    4.4330   30.0400 C   0  0  0  0  0  0  0  0  0  0  0  0
   26.3570    3.2160   30.6400 C   0  0  0  0  0  0  0  0  0  0  0  0
   22.1720    4.2480   30.0120 C   0  0  0  0  0  0  0  0  0  0  0  0
   21.4310    5.1620   30.9750 C   0  0  0  0  0  0  0  0  0  0  0  0
   22.0220    6.4420   31.1160 N   0  0  0  0  0  0  0  0  0  0  0  0
   21.4100    7.6100   31.6330 C   0  0  0  0  0  0  0  0  0  0  0  0
   20.3830    4.8640   31.5040 O   0  0  0  0  0  0  0  0  0  0  0  0
   22.1310    8.7450   31.2960 N   0  0  0  0  0  0  0  0  0  0  0  0
   21.6220    9.9440   31.6610 C   0  0  0  0  0  0  0  0  0  0  0  0
   20.4210   10.1150   32.4120 C   0  0  0  0  0  0  0  0  0  0  0  0
   19.7100    8.9230   32.7620 C   0  0  0  0  0  0  0  0  0  0  0  0
   20.2250    7.6590   32.3590 C   0  0  0  0  0  0  0  0  0  0  0  0
   27.0470    5.2310   29.6510 O   0  0  0  0  0  0  0  0  0  0  0  0
   26.7590    6.5820   29.1930 C   0  0  0  0  0  0  0  0  0  0  0  0
   22.8850    2.0940   31.4770 O   0  0  0  0  0  0  0  0  0  0  0  0
   23.1470    0.8820   32.2300 C   0  0  0  0  0  0  0  0  0  0  0  0
   18.5290    8.9830   33.4570 N   0  0  0  0  0  0  0  0  0  0  0  0
   19.9970   11.4210   32.7380 C   0  0  0  0  0  0  0  0  0  0  0  0
   22.2530   11.0800   31.2910 O   0  0  0  0  0  0  0  0  0  0  0  0
   23.5280   10.9930   30.5480 C   0  0  0  0  0  0  0  0  0  0  0  0
   23.2750   10.6950   29.0850 C   0  0  0  0  0  0  0  0  0  0  0  0
   19.7030   12.5190   32.9700 N   0  0  0  0  0  0  0  0  0  0  0  0
   25.5410    1.4710   31.6530 H   0  0  0  0  0  0  0  0  0  0  0  0
   24.3960    5.6920   29.2720 H   0  0  0  0  0  0  0  0  0  0  0  0
   19.6780    6.7500   32.6100 H   0  0  0  0  0  0  0  0  0  0  0  0
   21.6320    3.2540   30.0160 H   0  0  0  0  0  0  0  0  0  0  0  0
   22.0720    4.7080   28.9910 H   0  0  0  0  0  0  0  0  0  0  0  0
   22.9430    6.6060   30.6660 H   0  0  0  0  0  0  0  0  0  0  0  0
   26.2490    6.5520   28.2080 H   0  0  0  0  0  0  0  0  0  0  0  0
   26.1780    7.1420   29.9600 H   0  0  0  0  0  0  0  0  0  0  0  0
   27.7880    7.0080   29.0930 H   0  0  0  0  0  0  0  0  0  0  0  0
   22.1140    0.5740   32.5100 H   0  0  0  0  0  0  0  0  0  0  0  0
   23.6380    0.1290   31.5770 H   0  0  0  0  0  0  0  0  0  0  0  0
   23.7530    1.1130   33.1330 H   0  0  0  0  0  0  0  0  0  0  0  0
   18.0420    8.1180   33.7630 H   0  0  0  0  0  0  0  0  0  0  0  0
   18.1260    9.8760   33.7420 H   0  0  0  0  0  0  0  0  0  0  0  0
   24.1870   10.2320   31.0250 H   0  0  0  0  0  0  0  0  0  0  0  0
   23.8980   12.0340   30.7090 H   0  0  0  0  0  0  0  0  0  0  0  0
   22.5150   11.3830   28.6550 H   0  0  0  0  0  0  0  0  0  0  0  0
   24.2280   10.8270   28.5140 H   0  0  0  0  0  0  0  0  0  0  0  0
   22.9310    9.6430   28.9400 H   0  0  0  0  0  0  0  0  0  0  0  0
   28.0080    2.6090   30.7280 S   0  0  0  0  0  0  0  0  0  0  0  0
   28.8580    3.6280   31.3900 O   0  0  0  0  0  0  0  0  0  0  0  0
   28.4490    2.3530   29.3330 O   0  0  0  0  0  0  0  0  0  0  0  0
   28.0440    1.1380   31.6480 C   0  0  0  0  0  0  0  0  0  0  0  0
   29.0910    0.7530   31.7730 H   0  0  0  0  0  0  0  0  0  0  0  0
   27.6350    1.2580   32.6860 H   0  0  0  0  0  0  0  0  0  0  0  0
   27.4660    0.3030   31.1700 H   0  0  0  0  0  0  0  0  0  0  0  0
  1  2  1  0  0  0  0
  1  6  2  0  0  0  0
  1 27  1  0  0  0  0
  2  3  2  0  0  0  0
  2 19  1  0  0  0  0
  3  4  1  0  0  0  0
  3  7  1  0  0  0  0
  4  5  2  0  0  0  0
  4 28  1  0  0  0  0
  5  6  1  0  0  0  0
  5 17  1  0  0  0  0
  6 46  1  0  0  0  0
  7  8  1  0  0  0  0
  7 30  1  0  0  0  0
  7 31  1  0  0  0  0
  8  9  1  0  0  0  0
  8 11  2  0  0  0  0
  9 10  1  0  0  0  0
  9 32  1  0  0  0  0
 10 12  1  0  0  0  0
 10 16  2  0  0  0  0
 12 13  2  0  0  0  0
 13 14  1  0  0  0  0
 13 23  1  0  0  0  0
 14 15  2  0  0  0  0
 14 22  1  0  0  0  0
 15 16  1  0  0  0  0
 15 21  1  0  0  0  0
 16 29  1  0  0  0  0
 17 18  1  0  0  0  0
 18 33  1  0  0  0  0
 18 34  1  0  0  0  0
 18 35  1  0  0  0  0
 19 20  1  0  0  0  0
 20 36  1  0  0  0  0
 20 37  1  0  0  0  0
 20 38  1  0  0  0  0
 21 39  1  0  0  0  0
 21 40  1  0  0  0  0
 22 26  3  0  0  0  0
 23 24  1  0  0  0  0
 24 25  1  0  0  0  0
 24 41  1  0  0  0  0
 24 42  1  0  0  0  0
 25 43  1  0  0  0  0
 25 44  1  0  0  0  0
 25 45  1  0  0  0  0
 46 47  2  0  0  0  0
 46 48  2  0  0  0  0
 46 49  1  0  0  0  0
 49 50  1  0  0  0  0
 49 51  1  0  0  0  0
 49 52  1  0  0  0  0
M  END
$$$$
