p38a_2bb
 OpenBabel02232411163D
Structure written by MMmdl.
 44 46  0  0  0  0  0  0  0  0999 V2000
   36.3690   36.0320   15.8160 C   0  0  0  0  0  0  0  0  0  0  0  0
   34.4170   34.9770   21.2530 C   0  0  0  0  0  0  0  0  0  0  0  0
   35.7230   35.5490   16.9500 C   0  0  0  0  0  0  0  0  0  0  0  0
   33.8310   39.0350   23.8170 C   0  0  0  0  0  0  0  0  0  0  0  0
   32.5210   39.0630   25.9710 C   0  0  0  0  0  0  0  0  0  0  0  0
   34.7340   37.8310   21.5090 C   0  0  0  0  0  0  0  0  0  0  0  0
   35.2670   37.1630   20.3500 C   0  0  0  0  0  0  0  0  0  0  0  0
   37.6580   36.5470   16.0050 C   0  0  0  0  0  0  0  0  0  0  0  0
   38.3090   36.5600   17.2420 C   0  0  0  0  0  0  0  0  0  0  0  0
   37.6250   36.1020   18.3730 C   0  0  0  0  0  0  0  0  0  0  0  0
   34.1010   37.0780   22.5420 C   0  0  0  0  0  0  0  0  0  0  0  0
   34.8220   39.2330   21.7020 C   0  0  0  0  0  0  0  0  0  0  0  0
   35.1400   35.8190   20.2580 C   0  0  0  0  0  0  0  0  0  0  0  0
   36.3310   35.5970   18.2210 C   0  0  0  0  0  0  0  0  0  0  0  0
   33.2630   34.9410   23.5040 C   0  0  0  0  0  0  0  0  0  0  0  0
   34.5130   35.0130   16.8590 F   0  0  0  0  0  0  0  0  0  0  0  0
   35.6170   34.9790   19.2580 O   0  0  0  0  0  0  0  0  0  0  0  0
   34.3940   39.8470   22.8180 N   0  0  0  0  0  0  0  0  0  0  0  0
   34.2130   33.7880   21.1460 O   0  0  0  0  0  0  0  0  0  0  0  0
   33.9420   35.6900   22.4090 N   0  0  0  0  0  0  0  0  0  0  0  0
   33.6350   37.6790   23.6880 N   0  0  0  0  0  0  0  0  0  0  0  0
   33.5160   39.6490   25.0220 N   0  0  0  0  0  0  0  0  0  0  0  0
   35.8900   36.0330   14.8340 H   0  0  0  0  0  0  0  0  0  0  0  0
   31.7240   38.5140   25.3910 H   0  0  0  0  0  0  0  0  0  0  0  0
   35.7660   37.7730   19.5930 H   0  0  0  0  0  0  0  0  0  0  0  0
   39.3270   36.9500   17.3360 H   0  0  0  0  0  0  0  0  0  0  0  0
   38.0970   36.1650   19.3560 H   0  0  0  0  0  0  0  0  0  0  0  0
   35.2510   39.8720   20.9120 H   0  0  0  0  0  0  0  0  0  0  0  0
   33.7670   35.1550   24.4860 H   0  0  0  0  0  0  0  0  0  0  0  0
   32.1920   35.2690   23.5850 H   0  0  0  0  0  0  0  0  0  0  0  0
   33.3030   33.8390   23.3040 H   0  0  0  0  0  0  0  0  0  0  0  0
   33.6050   40.6840   25.0720 H   0  0  0  0  0  0  0  0  0  0  0  0
   38.2770   37.0810   14.9550 F   0  0  0  0  0  0  0  0  0  0  0  0
   33.1620   38.0770   26.9540 C   0  0  0  0  0  0  0  0  0  0  0  0
   32.0360   39.9230   26.5100 H   0  0  0  0  0  0  0  0  0  0  0  0
   32.3620   37.3400   27.2530 H   0  0  0  0  0  0  0  0  0  0  0  0
   33.9200   37.4630   26.3890 H   0  0  0  0  0  0  0  0  0  0  0  0
   35.1760   39.7920   27.8310 C   0  0  0  0  0  0  0  0  0  0  0  0
   33.8930   38.7650   28.3970 S   0  0  0  0  0  0  0  0  0  0  0  0
   32.9010   39.5400   29.1790 O   0  0  0  0  0  0  0  0  0  0  0  0
   34.4490   37.6670   29.2310 O   0  0  0  0  0  0  0  0  0  0  0  0
   35.8040   39.2930   27.0500 H   0  0  0  0  0  0  0  0  0  0  0  0
   34.7850   40.7370   27.3630 H   0  0  0  0  0  0  0  0  0  0  0  0
   35.8630   40.1120   28.6560 H   0  0  0  0  0  0  0  0  0  0  0  0
  1  3  2  0  0  0  0
  1  8  1  0  0  0  0
  1 23  1  0  0  0  0
  2 13  1  0  0  0  0
  2 19  2  0  0  0  0
  2 20  1  0  0  0  0
  3 14  1  0  0  0  0
  3 16  1  0  0  0  0
  4 18  2  0  0  0  0
  4 21  1  0  0  0  0
  4 22  1  0  0  0  0
  5 22  1  0  0  0  0
  5 24  1  0  0  0  0
  5 34  1  0  0  0  0
  5 35  1  0  0  0  0
  6  7  1  0  0  0  0
  6 11  1  0  0  0  0
  6 12  2  0  0  0  0
  7 13  2  0  0  0  0
  7 25  1  0  0  0  0
  8  9  2  0  0  0  0
  8 33  1  0  0  0  0
  9 10  1  0  0  0  0
  9 26  1  0  0  0  0
 10 14  2  0  0  0  0
 10 27  1  0  0  0  0
 11 20  1  0  0  0  0
 11 21  2  0  0  0  0
 12 18  1  0  0  0  0
 12 28  1  0  0  0  0
 13 17  1  0  0  0  0
 14 17  1  0  0  0  0
 15 20  1  0  0  0  0
 15 29  1  0  0  0  0
 15 30  1  0  0  0  0
 15 31  1  0  0  0  0
 22 32  1  0  0  0  0
 34 36  1  0  0  0  0
 34 37  1  0  0  0  0
 34 39  1  0  0  0  0
 38 39  1  0  0  0  0
 38 42  1  0  0  0  0
 38 43  1  0  0  0  0
 38 44  1  0  0  0  0
 39 40  2  0  0  0  0
 39 41  2  0  0  0  0
M  END
$$$$
