18639-1
 OpenBabel02232411163D
Structure written by MMmdl.
 48 49  0  0  0  0  0  0  0  0999 V2000
   23.1760   10.7950   29.0610 C   0  0  0  0  0  0  0  0  0  0  0  0
   23.4680   11.0400   30.5260 C   0  0  0  0  0  0  0  0  0  0  0  0
   22.2100   11.1480   31.2970 O   0  0  0  0  0  0  0  0  0  0  0  0
   21.5530   10.0190   31.6420 C   0  0  0  0  0  0  0  0  0  0  0  0
   22.0180    8.8220   31.2150 N   0  0  0  0  0  0  0  0  0  0  0  0
   21.2720    7.6970   31.5260 C   0  0  0  0  0  0  0  0  0  0  0  0
   20.1080    7.7490   32.2850 C   0  0  0  0  0  0  0  0  0  0  0  0
   19.6420    9.0070   32.7540 C   0  0  0  0  0  0  0  0  0  0  0  0
   18.4900    9.0630   33.4970 N   0  0  0  0  0  0  0  0  0  0  0  0
   20.3730   10.1940   32.4260 C   0  0  0  0  0  0  0  0  0  0  0  0
   19.9830   11.4990   32.7960 C   0  0  0  0  0  0  0  0  0  0  0  0
   19.7140   12.5950   33.0600 N   0  0  0  0  0  0  0  0  0  0  0  0
   21.8440    6.5310   30.9670 N   0  0  0  0  0  0  0  0  0  0  0  0
   21.2390    5.2610   30.8670 C   0  0  0  0  0  0  0  0  0  0  0  0
   20.1420    5.0170   31.3230 O   0  0  0  0  0  0  0  0  0  0  0  0
   22.0630    4.2610   30.0650 C   0  0  0  0  0  0  0  0  0  0  0  0
   23.4300    3.9930   30.6230 C   0  0  0  0  0  0  0  0  0  0  0  0
   24.5270    4.8540   30.3020 C   0  0  0  0  0  0  0  0  0  0  0  0
   24.1700    5.8990   29.4580 O   0  0  0  0  0  0  0  0  0  0  0  0
   25.1240    6.9860   29.2950 C   0  0  0  0  0  0  0  0  0  0  0  0
   25.8050    4.6160   30.7810 C   0  0  0  0  0  0  0  0  0  0  0  0
   26.0350    3.5050   31.6190 C   0  0  0  0  0  0  0  0  0  0  0  0
   27.3860    3.2540   32.1280 N   0  3  0  0  0  0  0  0  0  0  0  0
   27.5170    2.4710   33.0560 O   0  5  0  0  0  0  0  0  0  0  0  0
   28.3270    3.8340   31.6000 O   0  0  0  0  0  0  0  0  0  0  0  0
   24.9630    2.6400   31.9420 C   0  0  0  0  0  0  0  0  0  0  0  0
   23.6690    2.8910   31.4270 C   0  0  0  0  0  0  0  0  0  0  0  0
   25.3090    1.6060   32.7590 O   0  0  0  0  0  0  0  0  0  0  0  0
   24.3110    0.5710   33.0020 C   0  0  0  0  0  0  0  0  0  0  0  0
   24.1290   10.8570   28.4800 H   0  0  0  0  0  0  0  0  0  0  0  0
   22.4720   11.5560   28.6540 H   0  0  0  0  0  0  0  0  0  0  0  0
   22.7380    9.7810   28.9010 H   0  0  0  0  0  0  0  0  0  0  0  0
   23.8780   12.0620   30.7100 H   0  0  0  0  0  0  0  0  0  0  0  0
   24.1070   10.2430   30.9680 H   0  0  0  0  0  0  0  0  0  0  0  0
   19.5390    6.8450   32.5070 H   0  0  0  0  0  0  0  0  0  0  0  0
   17.9850    8.1960   33.7620 H   0  0  0  0  0  0  0  0  0  0  0  0
   18.1000    9.9520   33.8070 H   0  0  0  0  0  0  0  0  0  0  0  0
   22.7660    6.6770   30.4840 H   0  0  0  0  0  0  0  0  0  0  0  0
   21.4900    3.2980   30.0040 H   0  0  0  0  0  0  0  0  0  0  0  0
   22.1740    4.6760   29.0230 H   0  0  0  0  0  0  0  0  0  0  0  0
   25.4420    7.3810   30.2840 H   0  0  0  0  0  0  0  0  0  0  0  0
   25.9780    6.6310   28.6810 H   0  0  0  0  0  0  0  0  0  0  0  0
   24.5070    7.7350   28.7460 H   0  0  0  0  0  0  0  0  0  0  0  0
   26.6450    5.2670   30.5110 H   0  0  0  0  0  0  0  0  0  0  0  0
   22.8530    2.2030   31.6620 H   0  0  0  0  0  0  0  0  0  0  0  0
   24.8950   -0.1590   33.6130 H   0  0  0  0  0  0  0  0  0  0  0  0
   23.4610    0.9870   33.5840 H   0  0  0  0  0  0  0  0  0  0  0  0
   23.9890    0.1170   32.0400 H   0  0  0  0  0  0  0  0  0  0  0  0
  1  2  1  0  0  0  0
  1 30  1  0  0  0  0
  1 31  1  0  0  0  0
  1 32  1  0  0  0  0
  2  3  1  0  0  0  0
  2 33  1  0  0  0  0
  2 34  1  0  0  0  0
  3  4  1  0  0  0  0
  4 10  2  0  0  0  0
  4  5  1  0  0  0  0
  5  6  2  0  0  0  0
  6  7  1  0  0  0  0
  6 13  1  0  0  0  0
  7  8  2  0  0  0  0
  7 35  1  0  0  0  0
  8  9  1  0  0  0  0
  8 10  1  0  0  0  0
  9 36  1  0  0  0  0
  9 37  1  0  0  0  0
 10 11  1  0  0  0  0
 11 12  3  0  0  0  0
 13 14  1  0  0  0  0
 13 38  1  0  0  0  0
 14 15  2  0  0  0  0
 14 16  1  0  0  0  0
 16 17  1  0  0  0  0
 16 39  1  0  0  0  0
 16 40  1  0  0  0  0
 17 27  2  0  0  0  0
 17 18  1  0  0  0  0
 18 19  1  0  0  0  0
 18 21  2  0  0  0  0
 19 20  1  0  0  0  0
 20 41  1  0  0  0  0
 20 42  1  0  0  0  0
 20 43  1  0  0  0  0
 21 22  1  0  0  0  0
 21 44  1  0  0  0  0
 22 23  1  0  0  0  0
 22 26  2  0  0  0  0
 23 24  1  0  0  0  0
 23 25  2  0  0  0  0
 26 27  1  0  0  0  0
 26 28  1  0  0  0  0
 27 45  1  0  0  0  0
 28 29  1  0  0  0  0
 29 46  1  0  0  0  0
 29 47  1  0  0  0  0
 29 48  1  0  0  0  0
M  CHG  2  23   1  24  -1
M  END
$$$$
