p38a_3flw
 OpenBabel02232411163D
Structure written by MMmdl.
 49 51  0  0  0  0  0  0  0  0999 V2000
   38.2630   36.5270   17.1770 C   0  0  0  0  0  0  0  0  0  0  0  0
   37.6250   36.6860   15.9390 C   0  0  0  0  0  0  0  0  0  0  0  0
   34.1740   39.8210   27.4300 C   0  0  0  0  0  0  0  0  0  0  0  0
   33.8100   39.1700   28.7700 C   0  0  0  0  0  0  0  0  0  0  0  0
   31.9280   39.4740   26.2460 C   0  0  0  0  0  0  0  0  0  0  0  0
   34.0060   35.0860   23.7260 C   0  0  0  0  0  0  0  0  0  0  0  0
   37.9950   35.9370   19.4390 F   0  0  0  0  0  0  0  0  0  0  0  0
   37.4710   36.0740   18.2280 C   0  0  0  0  0  0  0  0  0  0  0  0
   38.3310   37.1840   14.9270 F   0  0  0  0  0  0  0  0  0  0  0  0
   36.2770   36.3880   15.7230 C   0  0  0  0  0  0  0  0  0  0  0  0
   35.5050   35.9230   16.7930 C   0  0  0  0  0  0  0  0  0  0  0  0
   36.1070   35.7600   18.0430 C   0  0  0  0  0  0  0  0  0  0  0  0
   35.3690   35.1510   19.0690 O   0  0  0  0  0  0  0  0  0  0  0  0
   35.0270   35.9820   20.1340 C   0  0  0  0  0  0  0  0  0  0  0  0
   35.0610   37.3340   20.1600 C   0  0  0  0  0  0  0  0  0  0  0  0
   34.7230   38.0100   21.3830 C   0  0  0  0  0  0  0  0  0  0  0  0
   34.6970   39.4240   21.5020 C   0  0  0  0  0  0  0  0  0  0  0  0
   34.4450   40.0550   22.6610 N   0  0  0  0  0  0  0  0  0  0  0  0
   34.5720   35.1360   21.2690 C   0  0  0  0  0  0  0  0  0  0  0  0
   34.3960   33.9380   21.2330 O   0  0  0  0  0  0  0  0  0  0  0  0
   34.3320   35.8580   22.4940 N   0  0  0  0  0  0  0  0  0  0  0  0
   34.4080   37.2560   22.5520 C   0  0  0  0  0  0  0  0  0  0  0  0
   34.1480   37.8720   23.7530 N   0  0  0  0  0  0  0  0  0  0  0  0
   34.2040   39.2520   23.7880 C   0  0  0  0  0  0  0  0  0  0  0  0
   34.0610   39.8920   25.0030 N   0  0  0  0  0  0  0  0  0  0  0  0
   33.4530   39.2250   26.1990 C   0  0  0  0  0  0  0  0  0  0  0  0
   31.1440   39.0330   25.0010 C   0  0  0  0  0  0  0  0  0  0  0  0
   31.2750   37.6340   24.7200 O   0  0  0  0  0  0  0  0  0  0  0  0
   34.3890   37.8650   28.9350 O   0  0  0  0  0  0  0  0  0  0  0  0
   39.3170   36.7840   17.3170 H   0  0  0  0  0  0  0  0  0  0  0  0
   33.9300   40.9130   27.5050 H   0  0  0  0  0  0  0  0  0  0  0  0
   35.2790   39.7320   27.2720 H   0  0  0  0  0  0  0  0  0  0  0  0
   34.2690   39.7540   29.6060 H   0  0  0  0  0  0  0  0  0  0  0  0
   32.7070   39.0960   28.9060 H   0  0  0  0  0  0  0  0  0  0  0  0
   31.5170   38.9340   27.1330 H   0  0  0  0  0  0  0  0  0  0  0  0
   31.7550   40.5690   26.3920 H   0  0  0  0  0  0  0  0  0  0  0  0
   34.5780   35.4950   24.6030 H   0  0  0  0  0  0  0  0  0  0  0  0
   32.9080   35.1600   23.9430 H   0  0  0  0  0  0  0  0  0  0  0  0
   34.2820   34.0070   23.5890 H   0  0  0  0  0  0  0  0  0  0  0  0
   35.8150   36.5300   14.7440 H   0  0  0  0  0  0  0  0  0  0  0  0
   34.4410   35.7090   16.6450 H   0  0  0  0  0  0  0  0  0  0  0  0
   35.3490   37.9410   19.2980 H   0  0  0  0  0  0  0  0  0  0  0  0
   34.8690   40.0550   20.6150 H   0  0  0  0  0  0  0  0  0  0  0  0
   33.9620   40.9290   25.0170 H   0  0  0  0  0  0  0  0  0  0  0  0
   33.6560   38.1230   26.1500 H   0  0  0  0  0  0  0  0  0  0  0  0
   30.0500   39.1540   25.1800 H   0  0  0  0  0  0  0  0  0  0  0  0
   31.4710   39.6090   24.1080 H   0  0  0  0  0  0  0  0  0  0  0  0
   32.2300   37.4400   24.5580 H   0  0  0  0  0  0  0  0  0  0  0  0
   34.0740   37.2770   28.2050 H   0  0  0  0  0  0  0  0  0  0  0  0
  1  2  2  0  0  0  0
  1  8  1  0  0  0  0
  1 30  1  0  0  0  0
  2  9  1  0  0  0  0
  2 10  1  0  0  0  0
  3  4  1  0  0  0  0
  3 26  1  0  0  0  0
  3 31  1  0  0  0  0
  3 32  1  0  0  0  0
  4 29  1  0  0  0  0
  4 33  1  0  0  0  0
  4 34  1  0  0  0  0
  5 26  1  0  0  0  0
  5 27  1  0  0  0  0
  5 35  1  0  0  0  0
  5 36  1  0  0  0  0
  6 21  1  0  0  0  0
  6 37  1  0  0  0  0
  6 38  1  0  0  0  0
  6 39  1  0  0  0  0
  7  8  1  0  0  0  0
  8 12  2  0  0  0  0
 10 11  2  0  0  0  0
 10 40  1  0  0  0  0
 11 12  1  0  0  0  0
 11 41  1  0  0  0  0
 12 13  1  0  0  0  0
 13 14  1  0  0  0  0
 14 15  2  0  0  0  0
 14 19  1  0  0  0  0
 15 16  1  0  0  0  0
 15 42  1  0  0  0  0
 16 17  2  0  0  0  0
 16 22  1  0  0  0  0
 17 18  1  0  0  0  0
 17 43  1  0  0  0  0
 18 24  2  0  0  0  0
 19 20  2  0  0  0  0
 19 21  1  0  0  0  0
 21 22  1  0  0  0  0
 22 23  2  0  0  0  0
 23 24  1  0  0  0  0
 24 25  1  0  0  0  0
 25 26  1  0  0  0  0
 25 44  1  0  0  0  0
 26 45  1  0  0  0  0
 27 28  1  0  0  0  0
 27 46  1  0  0  0  0
 27 47  1  0  0  0  0
 28 48  1  0  0  0  0
 29 49  1  0  0  0  0
M  END
$$$$
