p38a_3fmh
 OpenBabel02232411163D
Structure written by MMmdl.
 46 49  0  0  1  0  0  0  0  0999 V2000
   38.3810   37.2790   14.8430 F   0  0  0  0  0  0  0  0  0  0  0  0
   37.6890   36.7490   15.8480 C   0  0  0  0  0  0  0  0  0  0  0  0
   36.3470   36.4300   15.6290 C   0  0  0  0  0  0  0  0  0  0  0  0
   35.5890   35.9210   16.6890 C   0  0  0  0  0  0  0  0  0  0  0  0
   38.3330   36.5820   17.0810 C   0  0  0  0  0  0  0  0  0  0  0  0
   37.5530   36.0940   18.1250 C   0  0  0  0  0  0  0  0  0  0  0  0
   38.0780   35.9590   19.3370 F   0  0  0  0  0  0  0  0  0  0  0  0
   36.2000   35.7430   17.9330 C   0  0  0  0  0  0  0  0  0  0  0  0
   35.4870   35.0770   18.9380 O   0  0  0  0  0  0  0  0  0  0  0  0
   35.0850   35.8610   20.0170 C   0  0  0  0  0  0  0  0  0  0  0  0
   34.5680   34.9510   21.0740 C   0  0  0  0  0  0  0  0  0  0  0  0
   34.4500   33.7490   20.9730 O   0  0  0  0  0  0  0  0  0  0  0  0
   34.2010   35.6130   22.2960 N   0  0  0  0  0  0  0  0  0  0  0  0
   33.7250   34.8010   23.4510 C   0  0  0  0  0  0  0  0  0  0  0  0
   34.2550   37.0110   22.4300 C   0  0  0  0  0  0  0  0  0  0  0  0
   33.8740   37.5590   23.6280 N   0  0  0  0  0  0  0  0  0  0  0  0
   35.1200   37.2100   20.1170 C   0  0  0  0  0  0  0  0  0  0  0  0
   34.6940   37.8250   21.3440 C   0  0  0  0  0  0  0  0  0  0  0  0
   34.6970   39.2310   21.5530 C   0  0  0  0  0  0  0  0  0  0  0  0
   34.3290   39.8010   22.7100 N   0  0  0  0  0  0  0  0  0  0  0  0
   33.9110   38.9350   23.7390 C   0  0  0  0  0  0  0  0  0  0  0  0
   33.5130   39.4950   24.9310 N   0  0  0  0  0  0  0  0  0  0  0  0
   32.8650   38.6950   26.0060 C   0  0  2  0  0  0  0  0  0  0  0  0
   31.8350   39.5730   26.7180 C   0  0  0  0  0  0  0  0  0  0  0  0
   33.9100   38.0710   26.9770 C   0  0  0  0  0  0  0  0  0  0  0  0
   34.6780   39.0590   27.7630 N   0  0  0  0  0  0  0  0  0  0  0  0
   34.3150   39.4610   29.0140 N   0  0  0  0  0  0  0  0  0  0  0  0
   35.2700   40.3670   29.3680 C   0  0  0  0  0  0  0  0  0  0  0  0
   36.2020   40.4920   28.3040 N   0  0  0  0  0  0  0  0  0  0  0  0
   35.8210   39.6970   27.3540 N   0  0  0  0  0  0  0  0  0  0  0  0
   35.8770   36.5880   14.6560 H   0  0  0  0  0  0  0  0  0  0  0  0
   34.5310   35.6840   16.5390 H   0  0  0  0  0  0  0  0  0  0  0  0
   39.3810   36.8590   17.2280 H   0  0  0  0  0  0  0  0  0  0  0  0
   34.3350   35.0350   24.3660 H   0  0  0  0  0  0  0  0  0  0  0  0
   32.6510   35.0450   23.6740 H   0  0  0  0  0  0  0  0  0  0  0  0
   33.8150   33.7080   23.2220 H   0  0  0  0  0  0  0  0  0  0  0  0
   35.4660   37.8560   19.3070 H   0  0  0  0  0  0  0  0  0  0  0  0
   35.0020   39.9050   20.7340 H   0  0  0  0  0  0  0  0  0  0  0  0
   33.5480   40.5240   25.0650 H   0  0  0  0  0  0  0  0  0  0  0  0
   32.3240   37.8090   25.5460 H   0  0  0  0  0  0  0  0  0  0  0  0
   31.3720   39.0000   27.5580 H   0  0  0  0  0  0  0  0  0  0  0  0
   32.2870   40.5020   27.1280 H   0  0  0  0  0  0  0  0  0  0  0  0
   31.0320   39.8520   25.9960 H   0  0  0  0  0  0  0  0  0  0  0  0
   33.3490   37.3900   27.6870 H   0  0  0  0  0  0  0  0  0  0  0  0
   34.6310   37.4350   26.3850 H   0  0  0  0  0  0  0  0  0  0  0  0
   35.3260   40.9120   30.3090 H   0  0  0  0  0  0  0  0  0  0  0  0
  1  2  1  0  0  0  0
  2  3  2  0  0  0  0
  2  5  1  0  0  0  0
  3  4  1  0  0  0  0
  3 31  1  0  0  0  0
  4  8  2  0  0  0  0
  4 32  1  0  0  0  0
  5  6  2  0  0  0  0
  5 33  1  0  0  0  0
  6  7  1  0  0  0  0
  6  8  1  0  0  0  0
  8  9  1  0  0  0  0
  9 10  1  0  0  0  0
 10 11  1  0  0  0  0
 10 17  2  0  0  0  0
 11 12  2  0  0  0  0
 11 13  1  0  0  0  0
 13 14  1  0  0  0  0
 13 15  1  0  0  0  0
 14 34  1  0  0  0  0
 14 35  1  0  0  0  0
 14 36  1  0  0  0  0
 15 16  2  0  0  0  0
 15 18  1  0  0  0  0
 16 21  1  0  0  0  0
 17 18  1  0  0  0  0
 17 37  1  0  0  0  0
 18 19  2  0  0  0  0
 19 20  1  0  0  0  0
 19 38  1  0  0  0  0
 20 21  2  0  0  0  0
 21 22  1  0  0  0  0
 22 23  1  0  0  0  0
 22 39  1  0  0  0  0
 23 24  1  0  0  0  0
 23 25  1  0  0  0  0
 23 40  1  6  0  0  0
 24 41  1  0  0  0  0
 24 42  1  0  0  0  0
 24 43  1  0  0  0  0
 25 26  1  0  0  0  0
 25 44  1  0  0  0  0
 25 45  1  0  0  0  0
 26 27  1  0  0  0  0
 26 30  1  0  0  0  0
 27 28  2  0  0  0  0
 28 29  1  0  0  0  0
 28 46  1  0  0  0  0
 29 30  2  0  0  0  0
M  END
$$$$
