17124-1
 OpenBabel02232411163D
Structure written by MMmdl.
 46 47  0  0  0  0  0  0  0  0999 V2000
   23.8290   12.6780   30.3450 C   0  0  0  0  0  0  0  0  0  0  0  0
   23.3830   11.2320   30.4510 C   0  0  0  0  0  0  0  0  0  0  0  0
   22.1340   11.3240   31.2510 O   0  0  0  0  0  0  0  0  0  0  0  0
   21.5040   10.1810   31.5920 C   0  0  0  0  0  0  0  0  0  0  0  0
   21.9860    8.9950   31.1510 N   0  0  0  0  0  0  0  0  0  0  0  0
   21.2550    7.8560   31.4580 C   0  0  0  0  0  0  0  0  0  0  0  0
   20.0990    7.8900   32.2320 C   0  0  0  0  0  0  0  0  0  0  0  0
   19.6130    9.1360   32.7070 C   0  0  0  0  0  0  0  0  0  0  0  0
   18.4730    9.1730   33.4690 N   0  0  0  0  0  0  0  0  0  0  0  0
   20.3170   10.3360   32.3700 C   0  0  0  0  0  0  0  0  0  0  0  0
   19.8900   11.6340   32.7190 C   0  0  0  0  0  0  0  0  0  0  0  0
   19.5840   12.7270   32.9620 N   0  0  0  0  0  0  0  0  0  0  0  0
   21.8170    6.6960   30.8790 N   0  0  0  0  0  0  0  0  0  0  0  0
   21.2070    5.4230   30.7900 C   0  0  0  0  0  0  0  0  0  0  0  0
   20.1330    5.1750   31.2930 O   0  0  0  0  0  0  0  0  0  0  0  0
   21.9940    4.4310   29.9420 C   0  0  0  0  0  0  0  0  0  0  0  0
   23.3200    4.0620   30.5390 C   0  0  0  0  0  0  0  0  0  0  0  0
   24.4620    4.8700   30.3070 C   0  0  0  0  0  0  0  0  0  0  0  0
   24.2050    5.9590   29.4870 O   0  0  0  0  0  0  0  0  0  0  0  0
   25.2430    6.9660   29.3490 C   0  0  0  0  0  0  0  0  0  0  0  0
   25.7110    4.5510   30.8480 C   0  0  0  0  0  0  0  0  0  0  0  0
   25.8340    3.4060   31.6320 C   0  0  0  0  0  0  0  0  0  0  0  0
   27.5350    2.9680   32.3600 Br  0  0  0  0  0  0  0  0  0  0  0  0
   24.7140    2.5830   31.8670 C   0  0  0  0  0  0  0  0  0  0  0  0
   23.4640    2.9100   31.3130 C   0  0  0  0  0  0  0  0  0  0  0  0
   24.9790    1.5040   32.6740 O   0  0  0  0  0  0  0  0  0  0  0  0
   23.9560    0.4800   32.7910 C   0  0  0  0  0  0  0  0  0  0  0  0
   24.0620   13.1070   31.3460 H   0  0  0  0  0  0  0  0  0  0  0  0
   23.0440   13.3050   29.8590 H   0  0  0  0  0  0  0  0  0  0  0  0
   24.7510   12.7230   29.7120 H   0  0  0  0  0  0  0  0  0  0  0  0
   23.1180   10.7950   29.4620 H   0  0  0  0  0  0  0  0  0  0  0  0
   24.1090   10.6000   31.0090 H   0  0  0  0  0  0  0  0  0  0  0  0
   19.5460    6.9760   32.4630 H   0  0  0  0  0  0  0  0  0  0  0  0
   17.9630    8.3010   33.7110 H   0  0  0  0  0  0  0  0  0  0  0  0
   18.0650   10.0570   33.7740 H   0  0  0  0  0  0  0  0  0  0  0  0
   22.7380    6.8370   30.3940 H   0  0  0  0  0  0  0  0  0  0  0  0
   21.3710    3.5090   29.8060 H   0  0  0  0  0  0  0  0  0  0  0  0
   22.1630    4.8950   28.9310 H   0  0  0  0  0  0  0  0  0  0  0  0
   24.7150    7.7480   28.7550 H   0  0  0  0  0  0  0  0  0  0  0  0
   25.5430    7.3560   30.3450 H   0  0  0  0  0  0  0  0  0  0  0  0
   26.1020    6.5420   28.7860 H   0  0  0  0  0  0  0  0  0  0  0  0
   26.5880    5.1800   30.6540 H   0  0  0  0  0  0  0  0  0  0  0  0
   22.6010    2.2620   31.4880 H   0  0  0  0  0  0  0  0  0  0  0  0
   24.4740   -0.2770   33.4290 H   0  0  0  0  0  0  0  0  0  0  0  0
   23.0570    0.8850   33.3040 H   0  0  0  0  0  0  0  0  0  0  0  0
   23.7190    0.0600   31.7900 H   0  0  0  0  0  0  0  0  0  0  0  0
  1  2  1  0  0  0  0
  1 28  1  0  0  0  0
  1 29  1  0  0  0  0
  1 30  1  0  0  0  0
  2  3  1  0  0  0  0
  2 31  1  0  0  0  0
  2 32  1  0  0  0  0
  3  4  1  0  0  0  0
  4 10  2  0  0  0  0
  4  5  1  0  0  0  0
  5  6  2  0  0  0  0
  6  7  1  0  0  0  0
  6 13  1  0  0  0  0
  7  8  2  0  0  0  0
  7 33  1  0  0  0  0
  8  9  1  0  0  0  0
  8 10  1  0  0  0  0
  9 34  1  0  0  0  0
  9 35  1  0  0  0  0
 10 11  1  0  0  0  0
 11 12  3  0  0  0  0
 13 14  1  0  0  0  0
 13 36  1  0  0  0  0
 14 15  2  0  0  0  0
 14 16  1  0  0  0  0
 16 17  1  0  0  0  0
 16 37  1  0  0  0  0
 16 38  1  0  0  0  0
 17 25  2  0  0  0  0
 17 18  1  0  0  0  0
 18 19  1  0  0  0  0
 18 21  2  0  0  0  0
 19 20  1  0  0  0  0
 20 39  1  0  0  0  0
 20 40  1  0  0  0  0
 20 41  1  0  0  0  0
 21 22  1  0  0  0  0
 21 42  1  0  0  0  0
 22 23  1  0  0  0  0
 22 24  2  0  0  0  0
 24 25  1  0  0  0  0
 24 26  1  0  0  0  0
 25 43  1  0  0  0  0
 26 27  1  0  0  0  0
 27 44  1  0  0  0  0
 27 45  1  0  0  0  0
 27 46  1  0  0  0  0
M  END
$$$$
