p38a_2n
 OpenBabel02232411163D
Structure written by MMmdl.
 53 56  0  0  0  0  0  0  0  0999 V2000
   38.2770   36.5540   17.1480 C   0  0  0  0  0  0  0  0  0  0  0  0
   34.4790   35.0790   21.1610 C   0  0  0  0  0  0  0  0  0  0  0  0
   37.4800   36.0910   18.1910 C   0  0  0  0  0  0  0  0  0  0  0  0
   33.8700   39.1430   23.7200 C   0  0  0  0  0  0  0  0  0  0  0  0
   34.5890   37.9600   21.3350 C   0  0  0  0  0  0  0  0  0  0  0  0
   35.0130   37.3080   20.1250 C   0  0  0  0  0  0  0  0  0  0  0  0
   37.6410   36.7350   15.9120 C   0  0  0  0  0  0  0  0  0  0  0  0
   36.2910   36.4550   15.6910 C   0  0  0  0  0  0  0  0  0  0  0  0
   35.5150   35.9750   16.7520 C   0  0  0  0  0  0  0  0  0  0  0  0
   34.1640   37.1790   22.4510 C   0  0  0  0  0  0  0  0  0  0  0  0
   34.5890   39.3700   21.5010 C   0  0  0  0  0  0  0  0  0  0  0  0
   34.9850   35.9570   20.0700 C   0  0  0  0  0  0  0  0  0  0  0  0
   36.1160   35.7820   17.9980 C   0  0  0  0  0  0  0  0  0  0  0  0
   37.9980   35.9350   19.4030 F   0  0  0  0  0  0  0  0  0  0  0  0
   35.3860   35.1450   19.0100 O   0  0  0  0  0  0  0  0  0  0  0  0
   34.2530   39.9760   22.6510 N   0  0  0  0  0  0  0  0  0  0  0  0
   34.3760   33.8740   21.1020 O   0  0  0  0  0  0  0  0  0  0  0  0
   34.0760   35.7790   22.3530 N   0  0  0  0  0  0  0  0  0  0  0  0
   33.8220   37.7650   23.6410 N   0  0  0  0  0  0  0  0  0  0  0  0
   33.4610   39.7420   24.8910 N   0  0  0  0  0  0  0  0  0  0  0  0
   39.3330   36.8010   17.2940 H   0  0  0  0  0  0  0  0  0  0  0  0
   35.3530   37.9320   19.2970 H   0  0  0  0  0  0  0  0  0  0  0  0
   35.8300   36.6190   14.7150 H   0  0  0  0  0  0  0  0  0  0  0  0
   34.4500   35.7700   16.6000 H   0  0  0  0  0  0  0  0  0  0  0  0
   34.8740   40.0210   20.6580 H   0  0  0  0  0  0  0  0  0  0  0  0
   33.6130   40.7590   25.0310 H   0  0  0  0  0  0  0  0  0  0  0  0
   38.3530   37.2380   14.9070 F   0  0  0  0  0  0  0  0  0  0  0  0
   31.8240   38.8730   28.2290 C   0  0  0  0  0  0  0  0  0  0  0  0
   32.0380   39.6090   26.9000 C   0  0  0  0  0  0  0  0  0  0  0  0
   33.2070   38.9530   26.1340 C   0  0  0  0  0  0  0  0  0  0  0  0
   34.4720   38.9120   27.0200 C   0  0  0  0  0  0  0  0  0  0  0  0
   34.1460   38.2260   28.3530 C   0  0  0  0  0  0  0  0  0  0  0  0
   33.0320   38.8600   29.0240 O   0  0  0  0  0  0  0  0  0  0  0  0
   31.4920   37.8230   28.0540 H   0  0  0  0  0  0  0  0  0  0  0  0
   31.1120   39.4180   28.8890 H   0  0  0  0  0  0  0  0  0  0  0  0
   32.2710   40.6820   27.0950 H   0  0  0  0  0  0  0  0  0  0  0  0
   31.1090   39.5530   26.2850 H   0  0  0  0  0  0  0  0  0  0  0  0
   32.9150   37.9010   25.8520 H   0  0  0  0  0  0  0  0  0  0  0  0
   35.2780   38.3390   26.5010 H   0  0  0  0  0  0  0  0  0  0  0  0
   34.8410   39.9490   27.2030 H   0  0  0  0  0  0  0  0  0  0  0  0
   33.9060   37.1480   28.1960 H   0  0  0  0  0  0  0  0  0  0  0  0
   34.9730   38.3560   29.0880 H   0  0  0  0  0  0  0  0  0  0  0  0
   33.5900   34.9880   23.5320 C   0  0  0  0  0  0  0  0  0  0  0  0
   32.7680   35.5710   24.0370 H   0  0  0  0  0  0  0  0  0  0  0  0
   33.1660   34.0180   23.1580 H   0  0  0  0  0  0  0  0  0  0  0  0
   34.7220   34.7120   24.5360 C   0  0  0  0  0  0  0  0  0  0  0  0
   35.4910   34.0430   24.0840 H   0  0  0  0  0  0  0  0  0  0  0  0
   35.2060   35.6760   24.8390 H   0  0  0  0  0  0  0  0  0  0  0  0
   34.1730   34.0490   25.8040 C   0  0  0  0  0  0  0  0  0  0  0  0
   34.9290   34.0760   26.6240 H   0  0  0  0  0  0  0  0  0  0  0  0
   33.2200   34.5220   26.1400 H   0  0  0  0  0  0  0  0  0  0  0  0
   33.9450   32.6550   25.4800 O   0  0  0  0  0  0  0  0  0  0  0  0
   33.2100   32.3150   26.0470 H   0  0  0  0  0  0  0  0  0  0  0  0
  1  3  2  0  0  0  0
  1  7  1  0  0  0  0
  1 21  1  0  0  0  0
  2 12  1  0  0  0  0
  2 17  2  0  0  0  0
  2 18  1  0  0  0  0
  3 13  1  0  0  0  0
  3 14  1  0  0  0  0
  4 16  2  0  0  0  0
  4 19  1  0  0  0  0
  4 20  1  0  0  0  0
  5  6  1  0  0  0  0
  5 10  1  0  0  0  0
  5 11  2  0  0  0  0
  6 12  2  0  0  0  0
  6 22  1  0  0  0  0
  7  8  2  0  0  0  0
  7 27  1  0  0  0  0
  8  9  1  0  0  0  0
  8 23  1  0  0  0  0
  9 13  2  0  0  0  0
  9 24  1  0  0  0  0
 10 18  1  0  0  0  0
 10 19  2  0  0  0  0
 11 16  1  0  0  0  0
 11 25  1  0  0  0  0
 12 15  1  0  0  0  0
 13 15  1  0  0  0  0
 18 43  1  0  0  0  0
 20 26  1  0  0  0  0
 20 30  1  0  0  0  0
 28 29  1  0  0  0  0
 28 33  1  0  0  0  0
 28 34  1  0  0  0  0
 28 35  1  0  0  0  0
 29 30  1  0  0  0  0
 29 36  1  0  0  0  0
 29 37  1  0  0  0  0
 30 31  1  0  0  0  0
 30 38  1  0  0  0  0
 31 32  1  0  0  0  0
 31 39  1  0  0  0  0
 31 40  1  0  0  0  0
 32 33  1  0  0  0  0
 32 41  1  0  0  0  0
 32 42  1  0  0  0  0
 43 44  1  0  0  0  0
 43 45  1  0  0  0  0
 43 46  1  0  0  0  0
 46 47  1  0  0  0  0
 46 48  1  0  0  0  0
 46 49  1  0  0  0  0
 49 50  1  0  0  0  0
 49 51  1  0  0  0  0
 49 52  1  0  0  0  0
 52 53  1  0  0  0  0
M  END
$$$$
