43
 OpenBabel02232411163D
Structure written by MMmdl.
 44 47  0  0  0  0  0  0  0  0999 V2000
    3.6550  -48.6350    7.3010 O   0  0  0  0  0  0  0  0  0  0  0  0
    3.2010  -49.7840    7.1830 C   0  0  0  0  0  0  0  0  0  0  0  0
    3.8490  -50.8440    7.3080 O   0  5  0  0  0  0  0  0  0  0  0  0
    1.7140  -49.9510    6.8410 C   0  0  0  0  0  0  0  0  0  0  0  0
   -0.2670  -51.0740    6.7020 C   0  0  0  0  0  0  0  0  0  0  0  0
   -1.3030  -52.0220    6.7910 C   0  0  0  0  0  0  0  0  0  0  0  0
   -2.5510  -51.6510    6.3220 C   0  0  0  0  0  0  0  0  0  0  0  0
   -2.7640  -50.3710    5.7550 C   0  0  0  0  0  0  0  0  0  0  0  0
   -1.7430  -49.4370    5.6570 C   0  0  0  0  0  0  0  0  0  0  0  0
   -0.4630  -49.7510    6.1510 C   0  0  0  0  0  0  0  0  0  0  0  0
    0.8010  -49.0600    6.2710 C   0  0  0  0  0  0  0  0  0  0  0  0
    1.1630  -47.6790    5.8510 C   0  0  0  0  0  0  0  0  0  0  0  0
    0.0720  -46.6020    5.9600 C   0  0  0  0  0  0  0  0  0  0  0  0
   -0.3320  -46.2210    7.3810 C   0  0  0  0  0  0  0  0  0  0  0  0
   -1.5040  -46.9610    7.8630 O   0  0  0  0  0  0  0  0  0  0  0  0
   -2.7280  -46.3600    7.7560 C   0  0  0  0  0  0  0  0  0  0  0  0
   -4.8940  -46.1750    8.8180 C   0  0  0  0  0  0  0  0  0  0  0  0
   -3.6360  -46.7080    8.8180 C   0  0  0  0  0  0  0  0  0  0  0  0
   -1.1350  -53.0110    7.2160 H   0  0  0  0  0  0  0  0  0  0  0  0
   -3.3900  -52.3460    6.3830 H   0  0  0  0  0  0  0  0  0  0  0  0
   -3.7620  -50.1260    5.3870 H   0  0  0  0  0  0  0  0  0  0  0  0
   -1.9570  -48.4760    5.1910 H   0  0  0  0  0  0  0  0  0  0  0  0
    1.4830  -47.7100    4.7780 H   0  0  0  0  0  0  0  0  0  0  0  0
    2.0500  -47.3450    6.4630 H   0  0  0  0  0  0  0  0  0  0  0  0
    0.4800  -45.6790    5.4800 H   0  0  0  0  0  0  0  0  0  0  0  0
   -0.8320  -46.9170    5.3900 H   0  0  0  0  0  0  0  0  0  0  0  0
    0.4130  -46.5570    8.1360 H   0  0  0  0  0  0  0  0  0  0  0  0
   -0.5520  -45.1360    7.4680 H   0  0  0  0  0  0  0  0  0  0  0  0
   -3.3100  -47.3880    9.6050 H   0  0  0  0  0  0  0  0  0  0  0  0
   -3.1070  -45.5170    6.7330 C   0  0  0  0  0  0  0  0  0  0  0  0
   -5.6050  -46.4210    9.6120 H   0  0  0  0  0  0  0  0  0  0  0  0
   -4.4180  -44.9570    6.7300 C   0  0  0  0  0  0  0  0  0  0  0  0
   -5.3250  -45.2880    7.7750 C   0  0  0  0  0  0  0  0  0  0  0  0
   -6.6570  -44.7790    7.7290 C   0  0  0  0  0  0  0  0  0  0  0  0
   -7.0700  -43.9980    6.6750 C   0  0  0  0  0  0  0  0  0  0  0  0
   -6.1610  -43.6650    5.6310 C   0  0  0  0  0  0  0  0  0  0  0  0
   -4.8660  -44.1170    5.6600 C   0  0  0  0  0  0  0  0  0  0  0  0
   -7.3520  -45.0330    8.5320 H   0  0  0  0  0  0  0  0  0  0  0  0
   -8.0900  -43.6260    6.6160 H   0  0  0  0  0  0  0  0  0  0  0  0
   -6.5170  -43.0440    4.8120 H   0  0  0  0  0  0  0  0  0  0  0  0
   -4.1730  -43.8520    4.8600 H   0  0  0  0  0  0  0  0  0  0  0  0
   -2.4570  -45.3010    5.8950 H   0  0  0  0  0  0  0  0  0  0  0  0
    1.0700  -51.1720    7.1040 N   0  0  0  0  0  0  0  0  0  0  0  0
    1.4770  -52.0110    7.5050 H   0  0  0  0  0  0  0  0  0  0  0  0
  1  2  2  0  0  0  0
  2  3  1  0  0  0  0
  2  4  1  0  0  0  0
  4 11  2  0  0  0  0
  4 43  1  0  0  0  0
  5  6  2  0  0  0  0
  5 10  1  0  0  0  0
  5 43  1  0  0  0  0
  6  7  1  0  0  0  0
  6 19  1  0  0  0  0
  7  8  2  0  0  0  0
  7 20  1  0  0  0  0
  8  9  1  0  0  0  0
  8 21  1  0  0  0  0
  9 10  2  0  0  0  0
  9 22  1  0  0  0  0
 10 11  1  0  0  0  0
 11 12  1  0  0  0  0
 12 23  1  0  0  0  0
 12 24  1  0  0  0  0
 12 13  1  0  0  0  0
 13 14  1  0  0  0  0
 13 25  1  0  0  0  0
 13 26  1  0  0  0  0
 14 15  1  0  0  0  0
 14 27  1  0  0  0  0
 14 28  1  0  0  0  0
 15 16  1  0  0  0  0
 16 18  2  0  0  0  0
 16 30  1  0  0  0  0
 17 18  1  0  0  0  0
 17 31  1  0  0  0  0
 17 33  2  0  0  0  0
 18 29  1  0  0  0  0
 30 32  2  0  0  0  0
 30 42  1  0  0  0  0
 32 33  1  0  0  0  0
 32 37  1  0  0  0  0
 33 34  1  0  0  0  0
 34 35  2  0  0  0  0
 34 38  1  0  0  0  0
 35 36  1  0  0  0  0
 35 39  1  0  0  0  0
 36 37  2  0  0  0  0
 36 40  1  0  0  0  0
 37 41  1  0  0  0  0
 43 44  1  0  0  0  0
M  CHG  1   3  -1
M  END
$$$$
