60
                    3D
 Schrodinger Suite 2022-3.
 43 45  0  0  1  0  0  0  0  0999 V2000
    3.5050  -48.4160    7.2070 O   0  0  0  0  0  0  0  0  0  0  0  0
    3.1200  -49.3260    6.4620 C   0  0  0  0  0  0  0  0  0  0  0  0
    3.8270  -50.1060    5.7970 O   0  5  0  0  0  0  0  0  0  0  0  0
    1.6180  -49.6210    6.3910 C   0  0  0  0  0  0  0  0  0  0  0  0
    1.1980  -51.2500    6.8950 S   0  0  0  0  0  0  0  0  0  0  0  0
   -0.5020  -51.0050    6.5950 C   0  0  0  0  0  0  0  0  0  0  0  0
   -1.5320  -51.9210    6.7760 C   0  0  0  0  0  0  0  0  0  0  0  0
   -2.8280  -51.5240    6.4450 C   0  0  0  0  0  0  0  0  0  0  0  0
   -3.0680  -50.2320    5.9450 C   0  0  0  0  0  0  0  0  0  0  0  0
   -2.0300  -49.3170    5.7700 C   0  0  0  0  0  0  0  0  0  0  0  0
   -0.7170  -49.6920    6.0980 C   0  0  0  0  0  0  0  0  0  0  0  0
    0.5260  -48.9110    6.0120 C   0  0  0  0  0  0  0  0  0  0  0  0
    0.5250  -47.4890    5.5430 C   0  0  0  0  0  0  0  0  0  0  0  0
    0.5060  -46.4780    6.7030 C   0  0  0  0  0  0  0  0  0  0  0  0
   -0.8220  -46.4400    7.4540 C   0  0  0  0  0  0  0  0  0  0  0  0
   -1.7240  -45.7730    6.4950 O   0  0  0  0  0  0  0  0  0  0  0  0
   -2.9950  -45.4870    6.8830 C   0  0  0  0  0  0  0  0  0  0  0  0
   -3.5700  -45.8500    8.1110 C   0  0  0  0  0  0  0  0  0  0  0  0
   -4.8960  -45.4840    8.3760 C   0  0  0  0  0  0  0  0  0  0  0  0
   -5.5430  -45.8290    9.6760 C   0  0  0  0  0  0  0  0  0  0  0  0
   -5.6140  -44.7860    7.3930 C   0  0  0  0  0  0  0  0  0  0  0  0
   -7.2740  -44.4180    7.6860 Cl  0  0  0  0  0  0  0  0  0  0  0  0
   -5.0470  -44.4160    6.1580 C   0  0  0  0  0  0  0  0  0  0  0  0
   -5.8660  -43.7300    5.1160 C   0  0  0  0  0  0  0  0  0  0  0  0
   -3.7210  -44.7640    5.9110 C   0  0  0  0  0  0  0  0  0  0  0  0
   -1.3560  -52.9250    7.1700 H   0  0  0  0  0  0  0  0  0  0  0  0
   -3.6600  -52.2140    6.5720 H   0  0  0  0  0  0  0  0  0  0  0  0
   -4.0910  -49.9500    5.6940 H   0  0  0  0  0  0  0  0  0  0  0  0
   -2.2610  -48.3240    5.3810 H   0  0  0  0  0  0  0  0  0  0  0  0
   -0.3780  -47.3000    4.9040 H   0  0  0  0  0  0  0  0  0  0  0  0
    1.4320  -47.2860    4.9220 H   0  0  0  0  0  0  0  0  0  0  0  0
    0.6870  -45.4550    6.2900 H   0  0  0  0  0  0  0  0  0  0  0  0
    1.3130  -46.7310    7.4340 H   0  0  0  0  0  0  0  0  0  0  0  0
   -0.7760  -45.7960    8.3580 H   0  0  0  0  0  0  0  0  0  0  0  0
   -1.2470  -47.4470    7.6520 H   0  0  0  0  0  0  0  0  0  0  0  0
   -3.0260  -46.4290    8.8520 H   0  0  0  0  0  0  0  0  0  0  0  0
   -5.9310  -44.9090   10.1750 H   0  0  0  0  0  0  0  0  0  0  0  0
   -6.4120  -46.5100    9.5000 H   0  0  0  0  0  0  0  0  0  0  0  0
   -4.8340  -46.3450   10.3620 H   0  0  0  0  0  0  0  0  0  0  0  0
   -5.2270  -43.3850    4.2710 H   0  0  0  0  0  0  0  0  0  0  0  0
   -6.6280  -44.4490    4.7230 H   0  0  0  0  0  0  0  0  0  0  0  0
   -6.4050  -42.8510    5.5380 H   0  0  0  0  0  0  0  0  0  0  0  0
   -3.2480  -44.5040    4.9700 H   0  0  0  0  0  0  0  0  0  0  0  0
  1  2  2  0  0  0  0
  2  3  1  0  0  0  0
  2  4  1  0  0  0  0
  4  5  1  0  0  0  0
  4 12  2  0  0  0  0
  5  6  1  0  0  0  0
  6  7  1  0  0  0  0
  6 11  2  0  0  0  0
  7  8  2  0  0  0  0
  7 26  1  0  0  0  0
  8  9  1  0  0  0  0
  8 27  1  0  0  0  0
  9 10  2  0  0  0  0
  9 28  1  0  0  0  0
 10 11  1  0  0  0  0
 10 29  1  0  0  0  0
 11 12  1  0  0  0  0
 12 13  1  0  0  0  0
 13 30  1  0  0  0  0
 13 31  1  0  0  0  0
 13 14  1  0  0  0  0
 14 15  1  0  0  0  0
 14 32  1  0  0  0  0
 14 33  1  0  0  0  0
 15 16  1  0  0  0  0
 15 34  1  0  0  0  0
 15 35  1  0  0  0  0
 16 17  1  0  0  0  0
 17 18  1  0  0  0  0
 17 25  2  0  0  0  0
 18 19  2  0  0  0  0
 18 36  1  0  0  0  0
 19 20  1  0  0  0  0
 19 21  1  0  0  0  0
 20 37  1  0  0  0  0
 20 38  1  0  0  0  0
 20 39  1  0  0  0  0
 21 22  1  0  0  0  0
 21 23  2  0  0  0  0
 23 24  1  0  0  0  0
 23 25  1  0  0  0  0
 24 40  1  0  0  0  0
 24 41  1  0  0  0  0
 24 42  1  0  0  0  0
 25 43  1  0  0  0  0
M  CHG  1   3  -1
M  END
$$$$
