18639-1
 OpenBabel02232411163D
Structure written by MMmdl.
 48 49  0  0  0  0  0  0  0  0999 V2000
   24.4550   10.8640   30.7600 C   0  0  0  0  0  0  0  0  0  0  0  0
   23.1360   11.2320   30.1130 C   0  0  0  0  0  0  0  0  0  0  0  0
   22.0540   11.3010   31.1190 O   0  0  0  0  0  0  0  0  0  0  0  0
   21.4670   10.1540   31.5310 C   0  0  0  0  0  0  0  0  0  0  0  0
   21.9450    8.9640   31.0980 N   0  0  0  0  0  0  0  0  0  0  0  0
   21.2500    7.8230   31.4680 C   0  0  0  0  0  0  0  0  0  0  0  0
   20.1130    7.8570   32.2670 C   0  0  0  0  0  0  0  0  0  0  0  0
   19.6260    9.1090   32.7290 C   0  0  0  0  0  0  0  0  0  0  0  0
   18.4900    9.1490   33.4960 N   0  0  0  0  0  0  0  0  0  0  0  0
   20.3190   10.3080   32.3660 C   0  0  0  0  0  0  0  0  0  0  0  0
   19.9110   11.6070   32.7370 C   0  0  0  0  0  0  0  0  0  0  0  0
   19.6280   12.7000   33.0020 N   0  0  0  0  0  0  0  0  0  0  0  0
   21.8390    6.6580   30.9230 N   0  0  0  0  0  0  0  0  0  0  0  0
   21.2640    5.3720   30.8590 C   0  0  0  0  0  0  0  0  0  0  0  0
   20.1850    5.1050   31.3450 O   0  0  0  0  0  0  0  0  0  0  0  0
   22.0940    4.3810   30.0510 C   0  0  0  0  0  0  0  0  0  0  0  0
   23.4660    4.1220   30.6020 C   0  0  0  0  0  0  0  0  0  0  0  0
   24.5550    4.9910   30.2790 C   0  0  0  0  0  0  0  0  0  0  0  0
   24.1860    6.0440   29.4510 O   0  0  0  0  0  0  0  0  0  0  0  0
   25.1400    7.1270   29.2700 C   0  0  0  0  0  0  0  0  0  0  0  0
   25.8400    4.7510   30.7390 C   0  0  0  0  0  0  0  0  0  0  0  0
   26.0830    3.6350   31.5680 C   0  0  0  0  0  0  0  0  0  0  0  0
   27.4400    3.3870   32.0610 N   0  3  0  0  0  0  0  0  0  0  0  0
   27.5860    2.5850   32.9710 O   0  5  0  0  0  0  0  0  0  0  0  0
   28.3720    3.9860   31.5380 O   0  0  0  0  0  0  0  0  0  0  0  0
   25.0180    2.7650   31.8970 C   0  0  0  0  0  0  0  0  0  0  0  0
   23.7180    3.0160   31.3980 C   0  0  0  0  0  0  0  0  0  0  0  0
   25.3760    1.7260   32.7020 O   0  0  0  0  0  0  0  0  0  0  0  0
   24.3860    0.6840   32.9460 C   0  0  0  0  0  0  0  0  0  0  0  0
   25.2510   10.8220   29.9740 H   0  0  0  0  0  0  0  0  0  0  0  0
   24.7490   11.6150   31.5230 H   0  0  0  0  0  0  0  0  0  0  0  0
   24.4010    9.8580   31.2390 H   0  0  0  0  0  0  0  0  0  0  0  0
   23.1200   12.2900   29.7560 H   0  0  0  0  0  0  0  0  0  0  0  0
   22.8470   10.5180   29.3090 H   0  0  0  0  0  0  0  0  0  0  0  0
   19.5790    6.9410   32.5280 H   0  0  0  0  0  0  0  0  0  0  0  0
   17.9900    8.2760   33.7550 H   0  0  0  0  0  0  0  0  0  0  0  0
   18.0830   10.0340   33.7980 H   0  0  0  0  0  0  0  0  0  0  0  0
   22.7480    6.8150   30.4180 H   0  0  0  0  0  0  0  0  0  0  0  0
   21.5270    3.4130   29.9910 H   0  0  0  0  0  0  0  0  0  0  0  0
   22.1970    4.7950   29.0080 H   0  0  0  0  0  0  0  0  0  0  0  0
   25.5060    7.5000   30.2500 H   0  0  0  0  0  0  0  0  0  0  0  0
   25.9650    6.7730   28.6140 H   0  0  0  0  0  0  0  0  0  0  0  0
   24.5070    7.8900   28.7600 H   0  0  0  0  0  0  0  0  0  0  0  0
   26.6770    5.4020   30.4590 H   0  0  0  0  0  0  0  0  0  0  0  0
   22.9060    2.3240   31.6370 H   0  0  0  0  0  0  0  0  0  0  0  0
   24.9790   -0.0490   33.5430 H   0  0  0  0  0  0  0  0  0  0  0  0
   23.5400    1.0910   33.5400 H   0  0  0  0  0  0  0  0  0  0  0  0
   24.0550    0.2380   31.9820 H   0  0  0  0  0  0  0  0  0  0  0  0
  1  2  1  0  0  0  0
  1 30  1  0  0  0  0
  1 31  1  0  0  0  0
  1 32  1  0  0  0  0
  2  3  1  0  0  0  0
  2 33  1  0  0  0  0
  2 34  1  0  0  0  0
  3  4  1  0  0  0  0
  4 10  2  0  0  0  0
  4  5  1  0  0  0  0
  5  6  2  0  0  0  0
  6  7  1  0  0  0  0
  6 13  1  0  0  0  0
  7  8  2  0  0  0  0
  7 35  1  0  0  0  0
  8  9  1  0  0  0  0
  8 10  1  0  0  0  0
  9 36  1  0  0  0  0
  9 37  1  0  0  0  0
 10 11  1  0  0  0  0
 11 12  3  0  0  0  0
 13 14  1  0  0  0  0
 13 38  1  0  0  0  0
 14 15  2  0  0  0  0
 14 16  1  0  0  0  0
 16 17  1  0  0  0  0
 16 39  1  0  0  0  0
 16 40  1  0  0  0  0
 17 27  2  0  0  0  0
 17 18  1  0  0  0  0
 18 19  1  0  0  0  0
 18 21  2  0  0  0  0
 19 20  1  0  0  0  0
 20 41  1  0  0  0  0
 20 42  1  0  0  0  0
 20 43  1  0  0  0  0
 21 22  1  0  0  0  0
 21 44  1  0  0  0  0
 22 23  1  0  0  0  0
 22 26  2  0  0  0  0
 23 24  1  0  0  0  0
 23 25  2  0  0  0  0
 26 27  1  0  0  0  0
 26 28  1  0  0  0  0
 27 45  1  0  0  0  0
 28 29  1  0  0  0  0
 29 46  1  0  0  0  0
 29 47  1  0  0  0  0
 29 48  1  0  0  0  0
M  CHG  2  23   1  24  -1
M  END
$$$$
