p38a_2z
 OpenBabel02232411163D
Structure written by MMmdl.
 45 47  0  0  0  0  0  0  0  0999 V2000
   36.4020   36.1170   15.7180 C   0  0  0  0  0  0  0  0  0  0  0  0
   34.4690   34.9430   21.0820 C   0  0  0  0  0  0  0  0  0  0  0  0
   35.7980   35.6060   16.8620 C   0  0  0  0  0  0  0  0  0  0  0  0
   33.7410   38.9180   23.7560 C   0  0  0  0  0  0  0  0  0  0  0  0
   32.6710   38.8140   26.1020 C   0  0  0  0  0  0  0  0  0  0  0  0
   34.7500   37.7870   21.4390 C   0  0  0  0  0  0  0  0  0  0  0  0
   35.3450   37.1590   20.2890 C   0  0  0  0  0  0  0  0  0  0  0  0
   37.6870   36.6510   15.8770 C   0  0  0  0  0  0  0  0  0  0  0  0
   38.3710   36.6630   17.0950 C   0  0  0  0  0  0  0  0  0  0  0  0
   37.7270   36.1790   18.2400 C   0  0  0  0  0  0  0  0  0  0  0  0
   34.0800   36.9980   22.4190 C   0  0  0  0  0  0  0  0  0  0  0  0
   34.8110   39.1870   21.6810 C   0  0  0  0  0  0  0  0  0  0  0  0
   35.2320   35.8190   20.1520 C   0  0  0  0  0  0  0  0  0  0  0  0
   36.4400   35.6500   18.1170 C   0  0  0  0  0  0  0  0  0  0  0  0
   33.2360   34.8020   23.2730 C   0  0  0  0  0  0  0  0  0  0  0  0
   34.5970   35.0460   16.7980 F   0  0  0  0  0  0  0  0  0  0  0  0
   35.7750   35.0010   19.1640 O   0  0  0  0  0  0  0  0  0  0  0  0
   34.3400   39.7620   22.7970 N   0  0  0  0  0  0  0  0  0  0  0  0
   34.2810   33.7560   20.9290 O   0  0  0  0  0  0  0  0  0  0  0  0
   33.9290   35.6150   22.2350 N   0  0  0  0  0  0  0  0  0  0  0  0
   33.5620   37.5610   23.5600 N   0  0  0  0  0  0  0  0  0  0  0  0
   33.2940   39.5090   24.9120 N   0  0  0  0  0  0  0  0  0  0  0  0
   35.8940   36.1220   14.7510 H   0  0  0  0  0  0  0  0  0  0  0  0
   32.6040   39.8700   27.2240 C   0  0  0  0  0  0  0  0  0  0  0  0
   35.8770   37.7910   19.5750 H   0  0  0  0  0  0  0  0  0  0  0  0
   39.3820   37.0700   17.1700 H   0  0  0  0  0  0  0  0  0  0  0  0
   38.2280   36.2390   19.2090 H   0  0  0  0  0  0  0  0  0  0  0  0
   35.2650   39.8530   20.9280 H   0  0  0  0  0  0  0  0  0  0  0  0
   33.7310   34.9510   24.2700 H   0  0  0  0  0  0  0  0  0  0  0  0
   32.1600   35.1090   23.3440 H   0  0  0  0  0  0  0  0  0  0  0  0
   33.2880   33.7120   23.0070 H   0  0  0  0  0  0  0  0  0  0  0  0
   33.4710   40.5310   25.0380 H   0  0  0  0  0  0  0  0  0  0  0  0
   38.2690   37.2020   14.8140 F   0  0  0  0  0  0  0  0  0  0  0  0
   31.2060   38.4040   25.7430 C   0  0  0  0  0  0  0  0  0  0  0  0
   33.5130   37.6230   26.5680 C   0  0  0  0  0  0  0  0  0  0  0  0
   31.0930   37.1520   25.0710 O   0  0  0  0  0  0  0  0  0  0  0  0
   31.8030   37.0700   24.3860 H   0  0  0  0  0  0  0  0  0  0  0  0
   30.6200   38.2390   26.6790 H   0  0  0  0  0  0  0  0  0  0  0  0
   30.7280   39.1880   25.1100 H   0  0  0  0  0  0  0  0  0  0  0  0
   33.1560   37.2850   27.5700 H   0  0  0  0  0  0  0  0  0  0  0  0
   33.4270   36.7590   25.8700 H   0  0  0  0  0  0  0  0  0  0  0  0
   34.5850   37.9090   26.6610 H   0  0  0  0  0  0  0  0  0  0  0  0
   32.1520   39.4320   28.1440 H   0  0  0  0  0  0  0  0  0  0  0  0
   33.6260   40.2300   27.4940 H   0  0  0  0  0  0  0  0  0  0  0  0
   32.0000   40.7460   26.9110 H   0  0  0  0  0  0  0  0  0  0  0  0
  1  3  2  0  0  0  0
  1  8  1  0  0  0  0
  1 23  1  0  0  0  0
  2 13  1  0  0  0  0
  2 19  2  0  0  0  0
  2 20  1  0  0  0  0
  3 14  1  0  0  0  0
  3 16  1  0  0  0  0
  4 18  2  0  0  0  0
  4 21  1  0  0  0  0
  4 22  1  0  0  0  0
  5 22  1  0  0  0  0
  5 24  1  0  0  0  0
  5 34  1  0  0  0  0
  5 35  1  0  0  0  0
  6  7  1  0  0  0  0
  6 11  1  0  0  0  0
  6 12  2  0  0  0  0
  7 13  2  0  0  0  0
  7 25  1  0  0  0  0
  8  9  2  0  0  0  0
  8 33  1  0  0  0  0
  9 10  1  0  0  0  0
  9 26  1  0  0  0  0
 10 14  2  0  0  0  0
 10 27  1  0  0  0  0
 11 20  1  0  0  0  0
 11 21  2  0  0  0  0
 12 18  1  0  0  0  0
 12 28  1  0  0  0  0
 13 17  1  0  0  0  0
 14 17  1  0  0  0  0
 15 20  1  0  0  0  0
 15 29  1  0  0  0  0
 15 30  1  0  0  0  0
 15 31  1  0  0  0  0
 22 32  1  0  0  0  0
 24 43  1  0  0  0  0
 24 44  1  0  0  0  0
 24 45  1  0  0  0  0
 34 36  1  0  0  0  0
 34 38  1  0  0  0  0
 34 39  1  0  0  0  0
 35 40  1  0  0  0  0
 35 41  1  0  0  0  0
 35 42  1  0  0  0  0
 36 37  1  0  0  0  0
M  END
$$$$
