23486
 OpenBabel02232411173D
Structure written by MMmdl.
 60 63  0  0  0  0  0  0  0  0999 V2000
   42.3800   18.0290   12.6310 O   0  0  0  0  0  0  0  0  0  0  0  0
   41.2390   17.7270   12.9960 C   0  0  0  0  0  0  0  0  0  0  0  0
   40.1840   18.3420   12.7280 O   0  5  0  0  0  0  0  0  0  0  0  0
   41.0520   16.4540   13.8750 C   0  0  0  0  0  0  0  0  0  0  0  0
   42.3910   15.8700   13.8010 O   0  0  0  0  0  0  0  0  0  0  0  0
   42.6320   14.9240   14.7500 C   0  0  0  0  0  0  0  0  0  0  0  0
   42.0470   13.5990   14.6600 C   0  0  0  0  0  0  0  0  0  0  0  0
   40.9930   13.2770   13.3520 Cl  0  0  0  0  0  0  0  0  0  0  0  0
   42.4430   12.7230   15.6360 C   0  0  0  0  0  0  0  0  0  0  0  0
   42.0360   11.3660   15.9300 C   0  0  0  0  0  0  0  0  0  0  0  0
   42.7110   10.5690   16.8910 C   0  0  0  0  0  0  0  0  0  0  0  0
   42.2530    9.2910   17.1860 C   0  0  0  0  0  0  0  0  0  0  0  0
   41.1400    8.7310   16.5400 C   0  0  0  0  0  0  0  0  0  0  0  0
   40.4830    9.4950   15.5660 C   0  0  0  0  0  0  0  0  0  0  0  0
   39.4180    9.0030   14.7680 N   0  0  0  0  0  0  0  0  0  0  0  0
   38.5570    7.8760   15.1850 C   0  0  0  0  0  0  0  0  0  0  0  0
   37.0810    8.1160   14.7790 C   0  0  0  0  0  0  0  0  0  0  0  0
   36.8460    8.0220   13.2610 C   0  0  0  0  0  0  0  0  0  0  0  0
   37.3870    6.7750   12.6580 N   0  0  0  0  0  0  0  0  0  0  0  0
   36.3630    5.5150   12.1840 S   0  0  0  0  0  0  0  0  0  0  0  0
   36.9690    4.9000   11.0010 O   0  0  0  0  0  0  0  0  0  0  0  0
   35.0890    6.1720   11.8470 O   0  0  0  0  0  0  0  0  0  0  0  0
   36.2570    4.2780   13.4260 C   0  0  0  0  0  0  0  0  0  0  0  0
   35.1330    4.4020   14.3990 C   0  0  0  0  0  0  0  0  0  0  0  0
   35.3480    5.0030   15.6500 C   0  0  0  0  0  0  0  0  0  0  0  0
   34.3240    5.0530   16.5990 C   0  0  0  0  0  0  0  0  0  0  0  0
   33.0780    4.4860   16.3180 C   0  0  0  0  0  0  0  0  0  0  0  0
   32.8670    3.8600   15.0850 C   0  0  0  0  0  0  0  0  0  0  0  0
   33.8800    3.8280   14.1230 C   0  0  0  0  0  0  0  0  0  0  0  0
   38.8000    6.5000   13.0330 C   0  0  0  0  0  0  0  0  0  0  0  0
   39.0530    6.5530   14.5470 C   0  0  0  0  0  0  0  0  0  0  0  0
   40.9220   10.8100   15.2890 C   0  0  0  0  0  0  0  0  0  0  0  0
   43.6160   13.5570   16.6480 S   0  0  0  0  0  0  0  0  0  0  0  0
   43.5260   15.0730   15.7730 C   0  0  0  0  0  0  0  0  0  0  0  0
   44.3460   16.2910   16.2140 C   0  0  0  0  0  0  0  0  0  0  0  0
   44.9650   16.1510   17.2930 O   0  0  0  0  0  0  0  0  0  0  0  0
   44.3730   17.2840   15.4860 O   0  5  0  0  0  0  0  0  0  0  0  0
   40.3140   15.7550   13.4330 H   0  0  0  0  0  0  0  0  0  0  0  0
   40.7790   16.6970   14.9220 H   0  0  0  0  0  0  0  0  0  0  0  0
   43.5950   10.9350   17.4150 H   0  0  0  0  0  0  0  0  0  0  0  0
   42.7610    8.6850   17.9420 H   0  0  0  0  0  0  0  0  0  0  0  0
   40.8230    7.7200   16.7800 H   0  0  0  0  0  0  0  0  0  0  0  0
   38.9700    9.6670   14.1240 H   0  0  0  0  0  0  0  0  0  0  0  0
   38.5950    7.7400   16.3010 H   0  0  0  0  0  0  0  0  0  0  0  0
   36.4640    7.3500   15.3030 H   0  0  0  0  0  0  0  0  0  0  0  0
   36.7470    9.1180   15.1330 H   0  0  0  0  0  0  0  0  0  0  0  0
   35.7470    8.0900   13.0580 H   0  0  0  0  0  0  0  0  0  0  0  0
   37.3770    8.8800   12.7600 H   0  0  0  0  0  0  0  0  0  0  0  0
   36.1950    3.2580   12.9380 H   0  0  0  0  0  0  0  0  0  0  0  0
   37.2300    4.2340   14.0030 H   0  0  0  0  0  0  0  0  0  0  0  0
   36.3350    5.3990   15.9110 H   0  0  0  0  0  0  0  0  0  0  0  0
   34.5150    5.5090   17.5760 H   0  0  0  0  0  0  0  0  0  0  0  0
   32.2840    4.5050   17.0680 H   0  0  0  0  0  0  0  0  0  0  0  0
   31.9080    3.3770   14.8810 H   0  0  0  0  0  0  0  0  0  0  0  0
   33.6940    3.3270   13.1690 H   0  0  0  0  0  0  0  0  0  0  0  0
   39.1210    5.5010   12.6460 H   0  0  0  0  0  0  0  0  0  0  0  0
   39.4310    7.3020   12.5570 H   0  0  0  0  0  0  0  0  0  0  0  0
   40.1530    6.4520   14.7210 H   0  0  0  0  0  0  0  0  0  0  0  0
   38.5530    5.7050   15.0640 H   0  0  0  0  0  0  0  0  0  0  0  0
   40.3550   11.3640   14.5480 H   0  0  0  0  0  0  0  0  0  0  0  0
  1  2  2  0  0  0  0
  2  3  1  0  0  0  0
  2  4  1  0  0  0  0
  4  5  1  0  0  0  0
  4 38  1  0  0  0  0
  4 39  1  0  0  0  0
  5  6  1  0  0  0  0
  6 34  2  0  0  0  0
  6  7  1  0  0  0  0
  7  8  1  0  0  0  0
  7  9  2  0  0  0  0
  9 10  1  0  0  0  0
  9 33  1  0  0  0  0
 10 32  2  0  0  0  0
 10 11  1  0  0  0  0
 11 12  2  0  0  0  0
 11 40  1  0  0  0  0
 12 13  1  0  0  0  0
 12 41  1  0  0  0  0
 13 14  2  0  0  0  0
 13 42  1  0  0  0  0
 14 15  1  0  0  0  0
 14 32  1  0  0  0  0
 15 16  1  0  0  0  0
 15 43  1  0  0  0  0
 16 31  1  0  0  0  0
 16 17  1  0  0  0  0
 16 44  1  0  0  0  0
 17 18  1  0  0  0  0
 17 45  1  0  0  0  0
 17 46  1  0  0  0  0
 18 19  1  0  0  0  0
 18 47  1  0  0  0  0
 18 48  1  0  0  0  0
 19 20  1  0  0  0  0
 19 30  1  0  0  0  0
 20 21  2  0  0  0  0
 20 22  2  0  0  0  0
 20 23  1  0  0  0  0
 23 24  1  0  0  0  0
 23 49  1  0  0  0  0
 23 50  1  0  0  0  0
 24 29  2  0  0  0  0
 24 25  1  0  0  0  0
 25 26  2  0  0  0  0
 25 51  1  0  0  0  0
 26 27  1  0  0  0  0
 26 52  1  0  0  0  0
 27 28  2  0  0  0  0
 27 53  1  0  0  0  0
 28 29  1  0  0  0  0
 28 54  1  0  0  0  0
 29 55  1  0  0  0  0
 30 31  1  0  0  0  0
 30 56  1  0  0  0  0
 30 57  1  0  0  0  0
 31 58  1  0  0  0  0
 31 59  1  0  0  0  0
 32 60  1  0  0  0  0
 33 34  1  0  0  0  0
 34 35  1  0  0  0  0
 35 36  2  0  0  0  0
 35 37  1  0  0  0  0
M  CHG  2   3  -1  37  -1
M  END
$$$$
