p38a_2x
 OpenBabel02232411163D
Structure written by MMmdl.
 43 46  0  0  1  0  0  0  0  0999 V2000
   38.2960   36.5610   17.1270 C   0  0  0  0  0  0  0  0  0  0  0  0
   34.5580   35.0510   21.1460 C   0  0  0  0  0  0  0  0  0  0  0  0
   37.4950   36.0960   18.1670 C   0  0  0  0  0  0  0  0  0  0  0  0
   33.9790   39.0750   23.7660 C   0  0  0  0  0  0  0  0  0  0  0  0
   34.6330   37.9290   21.3460 C   0  0  0  0  0  0  0  0  0  0  0  0
   35.0260   37.2950   20.1170 C   0  0  0  0  0  0  0  0  0  0  0  0
   37.6670   36.7320   15.8870 C   0  0  0  0  0  0  0  0  0  0  0  0
   36.3210   36.4380   15.6570 C   0  0  0  0  0  0  0  0  0  0  0  0
   35.5410   35.9580   16.7140 C   0  0  0  0  0  0  0  0  0  0  0  0
   34.2820   37.1310   22.4760 C   0  0  0  0  0  0  0  0  0  0  0  0
   34.5970   39.3380   21.5190 C   0  0  0  0  0  0  0  0  0  0  0  0
   35.0180   35.9440   20.0490 C   0  0  0  0  0  0  0  0  0  0  0  0
   36.1350   35.7800   17.9670 C   0  0  0  0  0  0  0  0  0  0  0  0
   33.8890   34.9280   23.5770 C   0  0  0  0  0  0  0  0  0  0  0  0
   38.0090   35.9500   19.3820 F   0  0  0  0  0  0  0  0  0  0  0  0
   35.3950   35.1440   18.9730 O   0  0  0  0  0  0  0  0  0  0  0  0
   34.2890   39.9240   22.6880 N   0  0  0  0  0  0  0  0  0  0  0  0
   34.4320   33.8480   21.0700 O   0  0  0  0  0  0  0  0  0  0  0  0
   34.2500   35.7310   22.3750 N   0  0  0  0  0  0  0  0  0  0  0  0
   33.9700   37.6980   23.6870 N   0  0  0  0  0  0  0  0  0  0  0  0
   33.5950   39.6660   24.9570 N   0  0  0  0  0  0  0  0  0  0  0  0
   39.3480   36.8160   17.2800 H   0  0  0  0  0  0  0  0  0  0  0  0
   35.3300   37.9310   19.2820 H   0  0  0  0  0  0  0  0  0  0  0  0
   35.8660   36.5930   14.6770 H   0  0  0  0  0  0  0  0  0  0  0  0
   34.4800   35.7410   16.5560 H   0  0  0  0  0  0  0  0  0  0  0  0
   34.8300   40.0020   20.6700 H   0  0  0  0  0  0  0  0  0  0  0  0
   34.5840   35.1730   24.4260 H   0  0  0  0  0  0  0  0  0  0  0  0
   32.8390   35.1690   23.8980 H   0  0  0  0  0  0  0  0  0  0  0  0
   33.9610   33.8330   23.3490 H   0  0  0  0  0  0  0  0  0  0  0  0
   33.7470   40.6880   25.0790 H   0  0  0  0  0  0  0  0  0  0  0  0
   38.3790   37.2420   14.8850 F   0  0  0  0  0  0  0  0  0  0  0  0
   33.5150   39.4170   28.5450 O   0  0  0  0  0  0  0  0  0  0  0  0
   34.8940   39.0880   28.2120 C   0  0  0  0  0  0  0  0  0  0  0  0
   34.8830   38.4880   26.8000 C   0  0  0  0  0  0  0  0  0  0  0  0
   33.5000   38.8590   26.2040 C   0  0  1  0  0  0  0  0  0  0  0  0
   32.7920   39.6780   27.3180 C   0  0  0  0  0  0  0  0  0  0  0  0
   35.1990   38.3650   28.9980 H   0  0  0  0  0  0  0  0  0  0  0  0
   35.4870   40.0290   28.2600 H   0  0  0  0  0  0  0  0  0  0  0  0
   35.7180   38.8970   26.1900 H   0  0  0  0  0  0  0  0  0  0  0  0
   34.9940   37.3780   26.8320 H   0  0  0  0  0  0  0  0  0  0  0  0
   32.9130   37.9260   25.9730 H   0  0  0  0  0  0  0  0  0  0  0  0
   31.7590   39.3200   27.5180 H   0  0  0  0  0  0  0  0  0  0  0  0
   32.8210   40.7740   27.1320 H   0  0  0  0  0  0  0  0  0  0  0  0
  1  3  2  0  0  0  0
  1  7  1  0  0  0  0
  1 22  1  0  0  0  0
  2 12  1  0  0  0  0
  2 18  2  0  0  0  0
  2 19  1  0  0  0  0
  3 13  1  0  0  0  0
  3 15  1  0  0  0  0
  4 17  2  0  0  0  0
  4 20  1  0  0  0  0
  4 21  1  0  0  0  0
  5  6  1  0  0  0  0
  5 10  1  0  0  0  0
  5 11  2  0  0  0  0
  6 12  2  0  0  0  0
  6 23  1  0  0  0  0
  7  8  2  0  0  0  0
  7 31  1  0  0  0  0
  8  9  1  0  0  0  0
  8 24  1  0  0  0  0
  9 13  2  0  0  0  0
  9 25  1  0  0  0  0
 10 19  1  0  0  0  0
 10 20  2  0  0  0  0
 11 17  1  0  0  0  0
 11 26  1  0  0  0  0
 12 16  1  0  0  0  0
 13 16  1  0  0  0  0
 14 19  1  0  0  0  0
 14 27  1  0  0  0  0
 14 28  1  0  0  0  0
 14 29  1  0  0  0  0
 21 30  1  0  0  0  0
 21 35  1  0  0  0  0
 32 33  1  0  0  0  0
 32 36  1  0  0  0  0
 33 34  1  0  0  0  0
 33 37  1  0  0  0  0
 33 38  1  0  0  0  0
 34 35  1  0  0  0  0
 34 39  1  0  0  0  0
 34 40  1  0  0  0  0
 35 36  1  0  0  0  0
 35 41  1  1  0  0  0
 36 42  1  0  0  0  0
 36 43  1  0  0  0  0
M  END
$$$$
