18629-1
 OpenBabel02232411163D
Structure written by MMmdl.
 41 42  0  0  0  0  0  0  0  0999 V2000
   24.4780   11.0280   30.7990 C   0  0  0  0  0  0  0  0  0  0  0  0
   23.1400   11.2590   30.1310 C   0  0  0  0  0  0  0  0  0  0  0  0
   22.0600   11.2860   31.1390 O   0  0  0  0  0  0  0  0  0  0  0  0
   21.4850   10.1280   31.5330 C   0  0  0  0  0  0  0  0  0  0  0  0
   21.9670    8.9450   31.0860 N   0  0  0  0  0  0  0  0  0  0  0  0
   21.2750    7.7950   31.4420 C   0  0  0  0  0  0  0  0  0  0  0  0
   20.1440    7.8170   32.2520 C   0  0  0  0  0  0  0  0  0  0  0  0
   19.6500    9.0630   32.7230 C   0  0  0  0  0  0  0  0  0  0  0  0
   18.5110    9.0980   33.4870 N   0  0  0  0  0  0  0  0  0  0  0  0
   20.3350   10.2680   32.3680 C   0  0  0  0  0  0  0  0  0  0  0  0
   19.9190   11.5620   32.7450 C   0  0  0  0  0  0  0  0  0  0  0  0
   19.6290   12.6530   33.0140 N   0  0  0  0  0  0  0  0  0  0  0  0
   21.8500    6.6400   30.8610 N   0  0  0  0  0  0  0  0  0  0  0  0
   21.3180    5.3250   30.8610 C   0  0  0  0  0  0  0  0  0  0  0  0
   20.2940    5.0350   31.4430 O   0  0  0  0  0  0  0  0  0  0  0  0
   22.1220    4.3520   30.0130 C   0  0  0  0  0  0  0  0  0  0  0  0
   23.4590    4.0270   30.6280 C   0  0  0  0  0  0  0  0  0  0  0  0
   24.5950    4.7730   30.2840 C   0  0  0  0  0  0  0  0  0  0  0  0
   25.8380    4.4910   30.8740 C   0  0  0  0  0  0  0  0  0  0  0  0
   27.0460    5.2780   30.4820 C   0  0  0  0  0  0  0  0  0  0  0  0
   25.9340    3.4500   31.8110 C   0  0  0  0  0  0  0  0  0  0  0  0
   24.8060    2.6940   32.1360 C   0  0  0  0  0  0  0  0  0  0  0  0
   23.5710    2.9710   31.5430 C   0  0  0  0  0  0  0  0  0  0  0  0
   24.4920   10.0590   31.3530 H   0  0  0  0  0  0  0  0  0  0  0  0
   24.7230   11.8520   31.5030 H   0  0  0  0  0  0  0  0  0  0  0  0
   25.2770   10.9790   30.0170 H   0  0  0  0  0  0  0  0  0  0  0  0
   23.0410   12.2960   29.7280 H   0  0  0  0  0  0  0  0  0  0  0  0
   22.9150   10.4920   29.3560 H   0  0  0  0  0  0  0  0  0  0  0  0
   19.6190    6.8970   32.5140 H   0  0  0  0  0  0  0  0  0  0  0  0
   18.0170    8.2260   33.7550 H   0  0  0  0  0  0  0  0  0  0  0  0
   18.1060    9.9820   33.7960 H   0  0  0  0  0  0  0  0  0  0  0  0
   22.7320    6.8100   30.3370 H   0  0  0  0  0  0  0  0  0  0  0  0
   21.5280    3.4080   29.8930 H   0  0  0  0  0  0  0  0  0  0  0  0
   22.2670    4.7970   28.9930 H   0  0  0  0  0  0  0  0  0  0  0  0
   24.5340    5.5740   29.5450 H   0  0  0  0  0  0  0  0  0  0  0  0
   26.8050    6.3650   30.3740 H   0  0  0  0  0  0  0  0  0  0  0  0
   27.8680    5.1790   31.2310 H   0  0  0  0  0  0  0  0  0  0  0  0
   27.4330    4.9140   29.4960 H   0  0  0  0  0  0  0  0  0  0  0  0
   26.8930    3.2220   32.2830 H   0  0  0  0  0  0  0  0  0  0  0  0
   24.8920    1.8730   32.8560 H   0  0  0  0  0  0  0  0  0  0  0  0
   22.7080    2.3510   31.7890 H   0  0  0  0  0  0  0  0  0  0  0  0
  1  2  1  0  0  0  0
  1 24  1  0  0  0  0
  1 25  1  0  0  0  0
  1 26  1  0  0  0  0
  2  3  1  0  0  0  0
  2 27  1  0  0  0  0
  2 28  1  0  0  0  0
  3  4  1  0  0  0  0
  4 10  2  0  0  0  0
  4  5  1  0  0  0  0
  5  6  2  0  0  0  0
  6  7  1  0  0  0  0
  6 13  1  0  0  0  0
  7  8  2  0  0  0  0
  7 29  1  0  0  0  0
  8  9  1  0  0  0  0
  8 10  1  0  0  0  0
  9 30  1  0  0  0  0
  9 31  1  0  0  0  0
 10 11  1  0  0  0  0
 11 12  3  0  0  0  0
 13 14  1  0  0  0  0
 13 32  1  0  0  0  0
 14 15  2  0  0  0  0
 14 16  1  0  0  0  0
 16 17  1  0  0  0  0
 16 33  1  0  0  0  0
 16 34  1  0  0  0  0
 17 23  2  0  0  0  0
 17 18  1  0  0  0  0
 18 19  2  0  0  0  0
 18 35  1  0  0  0  0
 19 20  1  0  0  0  0
 19 21  1  0  0  0  0
 20 36  1  0  0  0  0
 20 37  1  0  0  0  0
 20 38  1  0  0  0  0
 21 22  2  0  0  0  0
 21 39  1  0  0  0  0
 22 23  1  0  0  0  0
 22 40  1  0  0  0  0
 23 41  1  0  0  0  0
M  END
$$$$
