p38a_3flw
 OpenBabel02232411163D
Structure written by MMmdl.
 49 51  0  0  0  0  0  0  0  0999 V2000
   38.2910   36.5670   17.1340 C   0  0  0  0  0  0  0  0  0  0  0  0
   37.6500   36.7390   15.8990 C   0  0  0  0  0  0  0  0  0  0  0  0
   32.9630   39.8620   27.3330 C   0  0  0  0  0  0  0  0  0  0  0  0
   34.3810   40.3660   27.6370 C   0  0  0  0  0  0  0  0  0  0  0  0
   31.4780   38.2590   26.0200 C   0  0  0  0  0  0  0  0  0  0  0  0
   33.8590   34.9010   23.5910 C   0  0  0  0  0  0  0  0  0  0  0  0
   38.0240   35.9610   19.3930 F   0  0  0  0  0  0  0  0  0  0  0  0
   37.5000   36.1100   18.1840 C   0  0  0  0  0  0  0  0  0  0  0  0
   38.3560   37.2350   14.8870 F   0  0  0  0  0  0  0  0  0  0  0  0
   36.2990   36.4550   15.6860 C   0  0  0  0  0  0  0  0  0  0  0  0
   35.5290   35.9820   16.7540 C   0  0  0  0  0  0  0  0  0  0  0  0
   36.1350   35.8000   17.9990 C   0  0  0  0  0  0  0  0  0  0  0  0
   35.4120   35.1590   19.0120 O   0  0  0  0  0  0  0  0  0  0  0  0
   35.0150   35.9550   20.0840 C   0  0  0  0  0  0  0  0  0  0  0  0
   35.0000   37.3060   20.1560 C   0  0  0  0  0  0  0  0  0  0  0  0
   34.5590   37.9270   21.3760 C   0  0  0  0  0  0  0  0  0  0  0  0
   34.4810   39.3360   21.5460 C   0  0  0  0  0  0  0  0  0  0  0  0
   34.0750   39.9120   22.6870 N   0  0  0  0  0  0  0  0  0  0  0  0
   34.5570   35.0530   21.1740 C   0  0  0  0  0  0  0  0  0  0  0  0
   34.4590   33.8470   21.0960 O   0  0  0  0  0  0  0  0  0  0  0  0
   34.2150   35.7220   22.3990 N   0  0  0  0  0  0  0  0  0  0  0  0
   34.1840   37.1230   22.4940 C   0  0  0  0  0  0  0  0  0  0  0  0
   33.7750   37.6790   23.6800 N   0  0  0  0  0  0  0  0  0  0  0  0
   33.7040   39.0570   23.7460 C   0  0  0  0  0  0  0  0  0  0  0  0
   33.1980   39.6480   24.8810 N   0  0  0  0  0  0  0  0  0  0  0  0
   32.8850   38.8900   26.1350 C   0  0  0  0  0  0  0  0  0  0  0  0
   31.1970   37.2740   27.1650 C   0  0  0  0  0  0  0  0  0  0  0  0
   30.4510   36.1520   26.6470 O   0  0  0  0  0  0  0  0  0  0  0  0
   35.2830   39.3070   27.9940 O   0  0  0  0  0  0  0  0  0  0  0  0
   39.3470   36.8150   17.2730 H   0  0  0  0  0  0  0  0  0  0  0  0
   32.5540   39.3490   28.2380 H   0  0  0  0  0  0  0  0  0  0  0  0
   32.3180   40.7540   27.1400 H   0  0  0  0  0  0  0  0  0  0  0  0
   34.8620   40.8110   26.7350 H   0  0  0  0  0  0  0  0  0  0  0  0
   34.3420   41.1040   28.4740 H   0  0  0  0  0  0  0  0  0  0  0  0
   30.7050   39.0610   26.0080 H   0  0  0  0  0  0  0  0  0  0  0  0
   31.4030   37.6920   25.0580 H   0  0  0  0  0  0  0  0  0  0  0  0
   34.5300   35.1660   24.4520 H   0  0  0  0  0  0  0  0  0  0  0  0
   32.7950   35.1020   23.8900 H   0  0  0  0  0  0  0  0  0  0  0  0
   33.9760   33.8100   23.3580 H   0  0  0  0  0  0  0  0  0  0  0  0
   35.8340   36.6110   14.7100 H   0  0  0  0  0  0  0  0  0  0  0  0
   34.4640   35.7720   16.6060 H   0  0  0  0  0  0  0  0  0  0  0  0
   35.3110   37.9500   19.3300 H   0  0  0  0  0  0  0  0  0  0  0  0
   34.7560   40.0090   20.7150 H   0  0  0  0  0  0  0  0  0  0  0  0
   33.2300   40.6830   24.9730 H   0  0  0  0  0  0  0  0  0  0  0  0
   33.6530   38.0800   26.2790 H   0  0  0  0  0  0  0  0  0  0  0  0
   32.1370   36.8120   27.5490 H   0  0  0  0  0  0  0  0  0  0  0  0
   30.6230   37.7580   27.9840 H   0  0  0  0  0  0  0  0  0  0  0  0
   29.4840   36.2420   26.9820 H   0  0  0  0  0  0  0  0  0  0  0  0
   34.9030   38.8040   28.7570 H   0  0  0  0  0  0  0  0  0  0  0  0
  1  2  2  0  0  0  0
  1  8  1  0  0  0  0
  1 30  1  0  0  0  0
  2  9  1  0  0  0  0
  2 10  1  0  0  0  0
  3  4  1  0  0  0  0
  3 26  1  0  0  0  0
  3 31  1  0  0  0  0
  3 32  1  0  0  0  0
  4 29  1  0  0  0  0
  4 33  1  0  0  0  0
  4 34  1  0  0  0  0
  5 26  1  0  0  0  0
  5 27  1  0  0  0  0
  5 35  1  0  0  0  0
  5 36  1  0  0  0  0
  6 21  1  0  0  0  0
  6 37  1  0  0  0  0
  6 38  1  0  0  0  0
  6 39  1  0  0  0  0
  7  8  1  0  0  0  0
  8 12  2  0  0  0  0
 10 11  2  0  0  0  0
 10 40  1  0  0  0  0
 11 12  1  0  0  0  0
 11 41  1  0  0  0  0
 12 13  1  0  0  0  0
 13 14  1  0  0  0  0
 14 15  2  0  0  0  0
 14 19  1  0  0  0  0
 15 16  1  0  0  0  0
 15 42  1  0  0  0  0
 16 17  2  0  0  0  0
 16 22  1  0  0  0  0
 17 18  1  0  0  0  0
 17 43  1  0  0  0  0
 18 24  2  0  0  0  0
 19 20  2  0  0  0  0
 19 21  1  0  0  0  0
 21 22  1  0  0  0  0
 22 23  2  0  0  0  0
 23 24  1  0  0  0  0
 24 25  1  0  0  0  0
 25 26  1  0  0  0  0
 25 44  1  0  0  0  0
 26 45  1  0  0  0  0
 27 28  1  0  0  0  0
 27 46  1  0  0  0  0
 27 47  1  0  0  0  0
 28 48  1  0  0  0  0
 29 49  1  0  0  0  0
M  END
$$$$
