18637-1
 OpenBabel02232411163D
Structure written by MMmdl.
 53 54  0  0  0  0  0  0  0  0999 V2000
   23.8810   12.5920   30.3300 C   0  0  0  0  0  0  0  0  0  0  0  0
   23.4440   11.1460   30.4660 C   0  0  0  0  0  0  0  0  0  0  0  0
   22.1830   11.2480   31.2440 O   0  0  0  0  0  0  0  0  0  0  0  0
   21.5440   10.1090   31.5870 C   0  0  0  0  0  0  0  0  0  0  0  0
   22.0200    8.9190   31.1530 N   0  0  0  0  0  0  0  0  0  0  0  0
   21.2860    7.7830   31.4650 C   0  0  0  0  0  0  0  0  0  0  0  0
   20.1270    7.8280   32.2350 C   0  0  0  0  0  0  0  0  0  0  0  0
   19.6450    9.0790   32.7020 C   0  0  0  0  0  0  0  0  0  0  0  0
   18.5000    9.1270   33.4570 N   0  0  0  0  0  0  0  0  0  0  0  0
   20.3570   10.2740   32.3630 C   0  0  0  0  0  0  0  0  0  0  0  0
   19.9400   11.5750   32.7130 C   0  0  0  0  0  0  0  0  0  0  0  0
   19.6410   12.6680   32.9620 N   0  0  0  0  0  0  0  0  0  0  0  0
   21.8470    6.6180   30.9000 N   0  0  0  0  0  0  0  0  0  0  0  0
   21.2360    5.3430   30.8180 C   0  0  0  0  0  0  0  0  0  0  0  0
   20.1600    5.1020   31.3240 O   0  0  0  0  0  0  0  0  0  0  0  0
   22.0230    4.3450   29.9800 C   0  0  0  0  0  0  0  0  0  0  0  0
   23.3280    3.9540   30.6060 C   0  0  0  0  0  0  0  0  0  0  0  0
   24.4850    4.7400   30.4040 C   0  0  0  0  0  0  0  0  0  0  0  0
   24.2640    5.8310   29.5770 O   0  0  0  0  0  0  0  0  0  0  0  0
   25.3500    6.7730   29.3800 C   0  0  0  0  0  0  0  0  0  0  0  0
   25.7110    4.4080   30.9830 C   0  0  0  0  0  0  0  0  0  0  0  0
   25.8210    3.2520   31.7740 C   0  0  0  0  0  0  0  0  0  0  0  0
   24.6700    2.4310   31.9540 C   0  0  0  0  0  0  0  0  0  0  0  0
   23.4460    2.7930   31.3790 C   0  0  0  0  0  0  0  0  0  0  0  0
   24.8660    1.3140   32.7430 O   0  0  0  0  0  0  0  0  0  0  0  0
   23.9190    0.2260   32.5540 C   0  0  0  0  0  0  0  0  0  0  0  0
   27.1050    2.9270   32.3000 N   0  0  0  0  0  0  0  0  0  0  0  0
   27.3860    2.3520   33.5710 C   0  0  0  0  0  0  0  0  0  0  0  0
   26.4940    1.9910   34.3120 O   0  0  0  0  0  0  0  0  0  0  0  0
   28.8550    2.2490   33.8570 C   0  0  0  0  0  0  0  0  0  0  0  0
   24.0670   13.0570   31.3240 H   0  0  0  0  0  0  0  0  0  0  0  0
   23.1140   13.1940   29.7900 H   0  0  0  0  0  0  0  0  0  0  0  0
   24.8290   12.6250   29.7360 H   0  0  0  0  0  0  0  0  0  0  0  0
   23.2010   10.6820   29.4840 H   0  0  0  0  0  0  0  0  0  0  0  0
   24.1660   10.5340   31.0520 H   0  0  0  0  0  0  0  0  0  0  0  0
   19.5690    6.9190   32.4700 H   0  0  0  0  0  0  0  0  0  0  0  0
   18.1010   10.0150   33.7610 H   0  0  0  0  0  0  0  0  0  0  0  0
   17.9910    8.2600   33.7140 H   0  0  0  0  0  0  0  0  0  0  0  0
   22.7770    6.7490   30.4300 H   0  0  0  0  0  0  0  0  0  0  0  0
   21.3910    3.4350   29.8190 H   0  0  0  0  0  0  0  0  0  0  0  0
   22.2280    4.8150   28.9780 H   0  0  0  0  0  0  0  0  0  0  0  0
   25.6610    7.2110   30.3520 H   0  0  0  0  0  0  0  0  0  0  0  0
   26.1930    6.2730   28.8580 H   0  0  0  0  0  0  0  0  0  0  0  0
   24.8660    7.5370   28.7300 H   0  0  0  0  0  0  0  0  0  0  0  0
   26.5930    5.0310   30.8100 H   0  0  0  0  0  0  0  0  0  0  0  0
   22.5650    2.1610   31.5190 H   0  0  0  0  0  0  0  0  0  0  0  0
   24.3880   -0.5940   33.1470 H   0  0  0  0  0  0  0  0  0  0  0  0
   22.9260    0.5020   32.9710 H   0  0  0  0  0  0  0  0  0  0  0  0
   23.8590   -0.0500   31.4790 H   0  0  0  0  0  0  0  0  0  0  0  0
   27.9000    3.3400   31.7750 H   0  0  0  0  0  0  0  0  0  0  0  0
   29.3060    3.2630   34.0140 H   0  0  0  0  0  0  0  0  0  0  0  0
   29.0530    1.6430   34.7760 H   0  0  0  0  0  0  0  0  0  0  0  0
   29.4150    1.7670   33.0120 H   0  0  0  0  0  0  0  0  0  0  0  0
  1  2  1  0  0  0  0
  1 31  1  0  0  0  0
  1 32  1  0  0  0  0
  1 33  1  0  0  0  0
  2  3  1  0  0  0  0
  2 34  1  0  0  0  0
  2 35  1  0  0  0  0
  3  4  1  0  0  0  0
  4 10  2  0  0  0  0
  4  5  1  0  0  0  0
  5  6  2  0  0  0  0
  6  7  1  0  0  0  0
  6 13  1  0  0  0  0
  7  8  2  0  0  0  0
  7 36  1  0  0  0  0
  8  9  1  0  0  0  0
  8 10  1  0  0  0  0
  9 37  1  0  0  0  0
  9 38  1  0  0  0  0
 10 11  1  0  0  0  0
 11 12  3  0  0  0  0
 13 14  1  0  0  0  0
 13 39  1  0  0  0  0
 14 15  2  0  0  0  0
 14 16  1  0  0  0  0
 16 17  1  0  0  0  0
 16 40  1  0  0  0  0
 16 41  1  0  0  0  0
 17 24  2  0  0  0  0
 17 18  1  0  0  0  0
 18 19  1  0  0  0  0
 18 21  2  0  0  0  0
 19 20  1  0  0  0  0
 20 42  1  0  0  0  0
 20 43  1  0  0  0  0
 20 44  1  0  0  0  0
 21 22  1  0  0  0  0
 21 45  1  0  0  0  0
 22 23  2  0  0  0  0
 22 27  1  0  0  0  0
 23 24  1  0  0  0  0
 23 25  1  0  0  0  0
 24 46  1  0  0  0  0
 25 26  1  0  0  0  0
 26 47  1  0  0  0  0
 26 48  1  0  0  0  0
 26 49  1  0  0  0  0
 27 28  1  0  0  0  0
 27 50  1  0  0  0  0
 28 29  2  0  0  0  0
 28 30  1  0  0  0  0
 30 51  1  0  0  0  0
 30 52  1  0  0  0  0
 30 53  1  0  0  0  0
M  END
$$$$
