18639-1 flip
                    3D
 Schrodinger Suite 2022-3.
 48 49  0  0  1  0  0  0  0  0999 V2000
   25.3510    2.6620   31.6110 C   0  0  0  0  0  0  0  0  0  0  0  0
   24.0250    2.9380   31.2690 C   0  0  0  0  0  0  0  0  0  0  0  0
   23.6820    4.0730   30.4780 C   0  0  0  0  0  0  0  0  0  0  0  0
   24.7010    4.9220   30.0540 C   0  0  0  0  0  0  0  0  0  0  0  0
   26.0390    4.6730   30.4170 C   0  0  0  0  0  0  0  0  0  0  0  0
   26.3610    3.5310   31.1780 C   0  0  0  0  0  0  0  0  0  0  0  0
   22.2520    4.2850   30.0720 C   0  0  0  0  0  0  0  0  0  0  0  0
   21.4410    5.2050   30.9750 C   0  0  0  0  0  0  0  0  0  0  0  0
   21.9730    6.5150   31.0580 N   0  0  0  0  0  0  0  0  0  0  0  0
   21.3600    7.6710   31.5990 C   0  0  0  0  0  0  0  0  0  0  0  0
   20.4020    4.8840   31.5080 O   0  0  0  0  0  0  0  0  0  0  0  0
   22.0780    8.8110   31.2730 N   0  0  0  0  0  0  0  0  0  0  0  0
   21.5740   10.0050   31.6600 C   0  0  0  0  0  0  0  0  0  0  0  0
   20.3790   10.1640   32.4230 C   0  0  0  0  0  0  0  0  0  0  0  0
   19.6740    8.9660   32.7660 C   0  0  0  0  0  0  0  0  0  0  0  0
   20.1840    7.7080   32.3390 C   0  0  0  0  0  0  0  0  0  0  0  0
   27.1270    5.4370   30.0820 O   0  0  0  0  0  0  0  0  0  0  0  0
   26.8910    6.7030   29.4070 C   0  0  0  0  0  0  0  0  0  0  0  0
   22.9350    2.1760   31.6270 O   0  0  0  0  0  0  0  0  0  0  0  0
   23.1940    0.9170   32.3040 C   0  0  0  0  0  0  0  0  0  0  0  0
   18.5050    9.0150   33.4800 N   0  0  0  0  0  0  0  0  0  0  0  0
   19.9560   11.4660   32.7660 C   0  0  0  0  0  0  0  0  0  0  0  0
   22.2040   11.1450   31.3000 O   0  0  0  0  0  0  0  0  0  0  0  0
   23.4780   11.0630   30.5550 C   0  0  0  0  0  0  0  0  0  0  0  0
   23.2250   10.7810   29.0900 C   0  0  0  0  0  0  0  0  0  0  0  0
   19.6620   12.5620   33.0080 N   0  0  0  0  0  0  0  0  0  0  0  0
   25.6090    1.7770   32.2010 H   0  0  0  0  0  0  0  0  0  0  0  0
   24.4710    5.7760   29.4120 H   0  0  0  0  0  0  0  0  0  0  0  0
   19.6400    6.7940   32.5810 H   0  0  0  0  0  0  0  0  0  0  0  0
   21.7390    3.2790   30.0610 H   0  0  0  0  0  0  0  0  0  0  0  0
   22.2180    4.7180   29.0350 H   0  0  0  0  0  0  0  0  0  0  0  0
   22.8810    6.7010   30.5860 H   0  0  0  0  0  0  0  0  0  0  0  0
   27.9260    7.1180   29.3480 H   0  0  0  0  0  0  0  0  0  0  0  0
   26.4760    6.5210   28.3930 H   0  0  0  0  0  0  0  0  0  0  0  0
   26.2370    7.3550   30.0260 H   0  0  0  0  0  0  0  0  0  0  0  0
   22.1550    0.5500   32.4670 H   0  0  0  0  0  0  0  0  0  0  0  0
   23.7710    0.2450   31.6340 H   0  0  0  0  0  0  0  0  0  0  0  0
   23.7080    1.0980   33.2730 H   0  0  0  0  0  0  0  0  0  0  0  0
   18.0190    8.1460   33.7730 H   0  0  0  0  0  0  0  0  0  0  0  0
   18.0990    9.9050   33.7700 H   0  0  0  0  0  0  0  0  0  0  0  0
   24.1350   10.2950   31.0230 H   0  0  0  0  0  0  0  0  0  0  0  0
   23.8520   12.1020   30.7270 H   0  0  0  0  0  0  0  0  0  0  0  0
   24.1800   10.9070   28.5210 H   0  0  0  0  0  0  0  0  0  0  0  0
   22.8720    9.7330   28.9350 H   0  0  0  0  0  0  0  0  0  0  0  0
   22.4720   11.4800   28.6640 H   0  0  0  0  0  0  0  0  0  0  0  0
   28.2090    3.5930   32.5840 O   0  0  0  0  0  0  0  0  0  0  0  0
   27.7680    3.2040   31.5170 N   0  3  0  0  0  0  0  0  0  0  0  0
   28.4060    2.5520   30.7060 O   0  5  0  0  0  0  0  0  0  0  0  0
  1  2  1  0  0  0  0
  1  6  2  0  0  0  0
  1 27  1  0  0  0  0
  2  3  2  0  0  0  0
  2 19  1  0  0  0  0
  3  4  1  0  0  0  0
  3  7  1  0  0  0  0
  4  5  2  0  0  0  0
  4 28  1  0  0  0  0
  5  6  1  0  0  0  0
  5 17  1  0  0  0  0
  6 47  1  0  0  0  0
  7  8  1  0  0  0  0
  7 30  1  0  0  0  0
  7 31  1  0  0  0  0
  8  9  1  0  0  0  0
  8 11  2  0  0  0  0
  9 10  1  0  0  0  0
  9 32  1  0  0  0  0
 10 12  1  0  0  0  0
 10 16  2  0  0  0  0
 12 13  2  0  0  0  0
 13 14  1  0  0  0  0
 13 23  1  0  0  0  0
 14 15  2  0  0  0  0
 14 22  1  0  0  0  0
 15 16  1  0  0  0  0
 15 21  1  0  0  0  0
 16 29  1  0  0  0  0
 17 18  1  0  0  0  0
 18 33  1  0  0  0  0
 18 34  1  0  0  0  0
 18 35  1  0  0  0  0
 19 20  1  0  0  0  0
 20 36  1  0  0  0  0
 20 37  1  0  0  0  0
 20 38  1  0  0  0  0
 21 39  1  0  0  0  0
 21 40  1  0  0  0  0
 22 26  3  0  0  0  0
 23 24  1  0  0  0  0
 24 25  1  0  0  0  0
 24 41  1  0  0  0  0
 24 42  1  0  0  0  0
 25 43  1  0  0  0  0
 25 44  1  0  0  0  0
 25 45  1  0  0  0  0
 46 47  2  0  0  0  0
 47 48  1  0  0  0  0
M  CHG  2  47   1  48  -1
M  END
$$$$
