18659-1
 OpenBabel02232411163D
Structure written by MMmdl.
 50 51  0  0  0  0  0  0  0  0999 V2000
   21.9370   14.0520   30.3500 C   0  0  0  0  0  0  0  0  0  0  0  0
   23.1670   13.6450   29.7030 O   0  0  0  0  0  0  0  0  0  0  0  0
   23.8800   12.5960   30.3740 C   0  0  0  0  0  0  0  0  0  0  0  0
   23.2120   11.2200   30.2460 C   0  0  0  0  0  0  0  0  0  0  0  0
   22.1010   11.2630   31.2200 O   0  0  0  0  0  0  0  0  0  0  0  0
   21.4920   10.1070   31.5720 C   0  0  0  0  0  0  0  0  0  0  0  0
   21.9530    8.9300   31.0960 N   0  0  0  0  0  0  0  0  0  0  0  0
   21.2520    7.7810   31.4440 C   0  0  0  0  0  0  0  0  0  0  0  0
   20.1230    7.8080   32.2590 C   0  0  0  0  0  0  0  0  0  0  0  0
   19.6460    9.0520   32.7510 C   0  0  0  0  0  0  0  0  0  0  0  0
   18.5100    9.0890   33.5190 N   0  0  0  0  0  0  0  0  0  0  0  0
   20.3450   10.2540   32.4100 C   0  0  0  0  0  0  0  0  0  0  0  0
   19.9480   11.5480   32.8050 C   0  0  0  0  0  0  0  0  0  0  0  0
   19.6670   12.6380   33.0870 N   0  0  0  0  0  0  0  0  0  0  0  0
   21.8130    6.6270   30.8610 N   0  0  0  0  0  0  0  0  0  0  0  0
   21.2590    5.3230   30.8430 C   0  0  0  0  0  0  0  0  0  0  0  0
   20.2070    5.0490   31.3790 O   0  0  0  0  0  0  0  0  0  0  0  0
   22.0810    4.3360   30.0260 C   0  0  0  0  0  0  0  0  0  0  0  0
   23.4290    4.0650   30.6290 C   0  0  0  0  0  0  0  0  0  0  0  0
   24.5340    4.9180   30.3410 C   0  0  0  0  0  0  0  0  0  0  0  0
   24.2090    5.9560   29.4720 O   0  0  0  0  0  0  0  0  0  0  0  0
   25.1760    7.0310   29.3280 C   0  0  0  0  0  0  0  0  0  0  0  0
   25.7970    4.6860   30.8750 C   0  0  0  0  0  0  0  0  0  0  0  0
   25.9950    3.5970   31.7360 C   0  0  0  0  0  0  0  0  0  0  0  0
   24.9190    2.7600   32.0260 C   0  0  0  0  0  0  0  0  0  0  0  0
   23.6360    2.9760   31.4630 C   0  0  0  0  0  0  0  0  0  0  0  0
   24.9450    1.6590   32.8570 O   0  0  0  0  0  0  0  0  0  0  0  0
   26.2030    1.3370   33.5030 C   0  0  0  0  0  0  0  0  0  0  0  0
   22.1600   14.4330   31.3680 H   0  0  0  0  0  0  0  0  0  0  0  0
   21.2380   13.1880   30.3720 H   0  0  0  0  0  0  0  0  0  0  0  0
   21.5870   14.8630   29.6730 H   0  0  0  0  0  0  0  0  0  0  0  0
   24.8480   12.5760   29.8080 H   0  0  0  0  0  0  0  0  0  0  0  0
   24.0360   12.8600   31.4430 H   0  0  0  0  0  0  0  0  0  0  0  0
   22.7540   11.0530   29.2460 H   0  0  0  0  0  0  0  0  0  0  0  0
   23.9210   10.4040   30.5220 H   0  0  0  0  0  0  0  0  0  0  0  0
   19.5860    6.8920   32.5110 H   0  0  0  0  0  0  0  0  0  0  0  0
   18.0200    8.2170   33.7960 H   0  0  0  0  0  0  0  0  0  0  0  0
   18.1210    9.9730   33.8450 H   0  0  0  0  0  0  0  0  0  0  0  0
   22.7190    6.7820   30.3480 H   0  0  0  0  0  0  0  0  0  0  0  0
   21.5060    3.3770   29.9380 H   0  0  0  0  0  0  0  0  0  0  0  0
   22.2200    4.7630   28.9950 H   0  0  0  0  0  0  0  0  0  0  0  0
   26.0580    6.6590   28.7650 H   0  0  0  0  0  0  0  0  0  0  0  0
   25.4600    7.4380   30.3230 H   0  0  0  0  0  0  0  0  0  0  0  0
   24.5970    7.7770   28.7370 H   0  0  0  0  0  0  0  0  0  0  0  0
   26.6490    5.3280   30.6400 H   0  0  0  0  0  0  0  0  0  0  0  0
   26.9930    3.4350   32.1500 H   0  0  0  0  0  0  0  0  0  0  0  0
   22.8330    2.2720   31.6960 H   0  0  0  0  0  0  0  0  0  0  0  0
   25.9290    0.4330   34.0970 H   0  0  0  0  0  0  0  0  0  0  0  0
   26.5220    2.1720   34.1650 H   0  0  0  0  0  0  0  0  0  0  0  0
   26.9770    1.0960   32.7420 H   0  0  0  0  0  0  0  0  0  0  0  0
  1  2  1  0  0  0  0
  1 29  1  0  0  0  0
  1 30  1  0  0  0  0
  1 31  1  0  0  0  0
  2  3  1  0  0  0  0
  3  4  1  0  0  0  0
  3 32  1  0  0  0  0
  3 33  1  0  0  0  0
  4  5  1  0  0  0  0
  4 34  1  0  0  0  0
  4 35  1  0  0  0  0
  5  6  1  0  0  0  0
  6 12  2  0  0  0  0
  6  7  1  0  0  0  0
  7  8  2  0  0  0  0
  8  9  1  0  0  0  0
  8 15  1  0  0  0  0
  9 10  2  0  0  0  0
  9 36  1  0  0  0  0
 10 11  1  0  0  0  0
 10 12  1  0  0  0  0
 11 37  1  0  0  0  0
 11 38  1  0  0  0  0
 12 13  1  0  0  0  0
 13 14  3  0  0  0  0
 15 16  1  0  0  0  0
 15 39  1  0  0  0  0
 16 17  2  0  0  0  0
 16 18  1  0  0  0  0
 18 19  1  0  0  0  0
 18 40  1  0  0  0  0
 18 41  1  0  0  0  0
 19 26  2  0  0  0  0
 19 20  1  0  0  0  0
 20 21  1  0  0  0  0
 20 23  2  0  0  0  0
 21 22  1  0  0  0  0
 22 42  1  0  0  0  0
 22 43  1  0  0  0  0
 22 44  1  0  0  0  0
 23 24  1  0  0  0  0
 23 45  1  0  0  0  0
 24 25  2  0  0  0  0
 24 46  1  0  0  0  0
 25 26  1  0  0  0  0
 25 27  1  0  0  0  0
 26 47  1  0  0  0  0
 27 28  1  0  0  0  0
 28 48  1  0  0  0  0
 28 49  1  0  0  0  0
 28 50  1  0  0  0  0
M  END
$$$$
