p38a_2o
 OpenBabel02232411163D
Structure written by MMmdl.
 55 58  0  0  0  0  0  0  0  0999 V2000
   36.3580   35.9640   15.9120 C   0  0  0  0  0  0  0  0  0  0  0  0
   34.2410   35.0000   21.2790 C   0  0  0  0  0  0  0  0  0  0  0  0
   35.6920   35.4960   17.0410 C   0  0  0  0  0  0  0  0  0  0  0  0
   33.8590   39.0610   23.8820 C   0  0  0  0  0  0  0  0  0  0  0  0
   34.6950   37.8340   21.5590 C   0  0  0  0  0  0  0  0  0  0  0  0
   35.2410   37.1420   20.4230 C   0  0  0  0  0  0  0  0  0  0  0  0
   37.6500   36.4650   16.1130 C   0  0  0  0  0  0  0  0  0  0  0  0
   38.2880   36.4770   17.3580 C   0  0  0  0  0  0  0  0  0  0  0  0
   37.5850   36.0310   18.4820 C   0  0  0  0  0  0  0  0  0  0  0  0
   33.9770   37.1140   22.5570 C   0  0  0  0  0  0  0  0  0  0  0  0
   34.8450   39.2320   21.7640 C   0  0  0  0  0  0  0  0  0  0  0  0
   35.0610   35.8050   20.3290 C   0  0  0  0  0  0  0  0  0  0  0  0
   36.2860   35.5420   18.3190 C   0  0  0  0  0  0  0  0  0  0  0  0
   34.4760   34.9750   16.9380 F   0  0  0  0  0  0  0  0  0  0  0  0
   35.5550   34.9410   19.3540 O   0  0  0  0  0  0  0  0  0  0  0  0
   34.4450   39.8600   22.8810 N   0  0  0  0  0  0  0  0  0  0  0  0
   34.0260   33.8130   21.1800 O   0  0  0  0  0  0  0  0  0  0  0  0
   33.6620   35.7530   22.3640 N   0  0  0  0  0  0  0  0  0  0  0  0
   33.5750   37.7160   23.7210 N   0  0  0  0  0  0  0  0  0  0  0  0
   33.5330   39.6600   25.0740 N   0  0  0  0  0  0  0  0  0  0  0  0
   35.8900   35.9660   14.9240 H   0  0  0  0  0  0  0  0  0  0  0  0
   35.7950   37.7280   19.6850 H   0  0  0  0  0  0  0  0  0  0  0  0
   39.3080   36.8570   17.4590 H   0  0  0  0  0  0  0  0  0  0  0  0
   38.0460   36.0890   19.4710 H   0  0  0  0  0  0  0  0  0  0  0  0
   35.3100   39.8510   20.9790 H   0  0  0  0  0  0  0  0  0  0  0  0
   33.7240   40.6680   25.2210 H   0  0  0  0  0  0  0  0  0  0  0  0
   38.2860   36.9890   15.0680 F   0  0  0  0  0  0  0  0  0  0  0  0
   33.1820   40.5690   28.1670 C   0  0  0  0  0  0  0  0  0  0  0  0
   32.2790   39.7730   27.2160 C   0  0  0  0  0  0  0  0  0  0  0  0
   33.0510   38.8590   26.2440 C   0  0  0  0  0  0  0  0  0  0  0  0
   34.2180   38.1370   26.9540 C   0  0  0  0  0  0  0  0  0  0  0  0
   35.0380   39.0840   27.8320 C   0  0  0  0  0  0  0  0  0  0  0  0
   34.1920   39.7530   28.7960 O   0  0  0  0  0  0  0  0  0  0  0  0
   32.6000   40.9480   29.0400 H   0  0  0  0  0  0  0  0  0  0  0  0
   33.6890   41.3980   27.6270 H   0  0  0  0  0  0  0  0  0  0  0  0
   31.6540   40.4880   26.6270 H   0  0  0  0  0  0  0  0  0  0  0  0
   31.5910   39.1190   27.8090 H   0  0  0  0  0  0  0  0  0  0  0  0
   32.3340   38.0830   25.8450 H   0  0  0  0  0  0  0  0  0  0  0  0
   33.7740   37.3260   27.5860 H   0  0  0  0  0  0  0  0  0  0  0  0
   34.8840   37.6540   26.1990 H   0  0  0  0  0  0  0  0  0  0  0  0
   35.7430   38.5240   28.4880 H   0  0  0  0  0  0  0  0  0  0  0  0
   35.5610   39.8500   27.2160 H   0  0  0  0  0  0  0  0  0  0  0  0
   32.6300   35.1080   23.2500 C   0  0  0  0  0  0  0  0  0  0  0  0
   31.8660   35.9030   23.4980 H   0  0  0  0  0  0  0  0  0  0  0  0
   32.1390   34.2940   22.6440 H   0  0  0  0  0  0  0  0  0  0  0  0
   33.2170   34.5380   24.5410 C   0  0  0  0  0  0  0  0  0  0  0  0
   34.0300   33.8010   24.3060 H   0  0  0  0  0  0  0  0  0  0  0  0
   33.7190   35.3760   25.1080 H   0  0  0  0  0  0  0  0  0  0  0  0
   32.0010   33.7800   25.5840 S   0  0  0  0  0  0  0  0  0  0  0  0
   32.6620   33.1440   26.7470 O   0  0  0  0  0  0  0  0  0  0  0  0
   31.2400   32.7720   24.8090 O   0  0  0  0  0  0  0  0  0  0  0  0
   30.9580   35.0650   26.0970 C   0  0  0  0  0  0  0  0  0  0  0  0
   30.3180   35.4760   25.2730 H   0  0  0  0  0  0  0  0  0  0  0  0
   30.2400   34.7550   26.9050 H   0  0  0  0  0  0  0  0  0  0  0  0
   31.5240   35.9330   26.5260 H   0  0  0  0  0  0  0  0  0  0  0  0
  1  3  2  0  0  0  0
  1  7  1  0  0  0  0
  1 21  1  0  0  0  0
  2 12  1  0  0  0  0
  2 17  2  0  0  0  0
  2 18  1  0  0  0  0
  3 13  1  0  0  0  0
  3 14  1  0  0  0  0
  4 16  2  0  0  0  0
  4 19  1  0  0  0  0
  4 20  1  0  0  0  0
  5  6  1  0  0  0  0
  5 10  1  0  0  0  0
  5 11  2  0  0  0  0
  6 12  2  0  0  0  0
  6 22  1  0  0  0  0
  7  8  2  0  0  0  0
  7 27  1  0  0  0  0
  8  9  1  0  0  0  0
  8 23  1  0  0  0  0
  9 13  2  0  0  0  0
  9 24  1  0  0  0  0
 10 18  1  0  0  0  0
 10 19  2  0  0  0  0
 11 16  1  0  0  0  0
 11 25  1  0  0  0  0
 12 15  1  0  0  0  0
 13 15  1  0  0  0  0
 18 43  1  0  0  0  0
 20 26  1  0  0  0  0
 20 30  1  0  0  0  0
 28 29  1  0  0  0  0
 28 33  1  0  0  0  0
 28 34  1  0  0  0  0
 28 35  1  0  0  0  0
 29 30  1  0  0  0  0
 29 36  1  0  0  0  0
 29 37  1  0  0  0  0
 30 31  1  0  0  0  0
 30 38  1  0  0  0  0
 31 32  1  0  0  0  0
 31 39  1  0  0  0  0
 31 40  1  0  0  0  0
 32 33  1  0  0  0  0
 32 41  1  0  0  0  0
 32 42  1  0  0  0  0
 43 44  1  0  0  0  0
 43 45  1  0  0  0  0
 43 46  1  0  0  0  0
 46 47  1  0  0  0  0
 46 48  1  0  0  0  0
 46 49  1  0  0  0  0
 49 50  2  0  0  0  0
 49 51  2  0  0  0  0
 49 52  1  0  0  0  0
 52 53  1  0  0  0  0
 52 54  1  0  0  0  0
 52 55  1  0  0  0  0
M  END
$$$$
