p38a_3fmk
 OpenBabel02232411163D
Structure written by MMmdl.
 46 49  0  0  1  0  0  0  0  0999 V2000
   35.6290   35.5400   16.9880 C   0  0  0  0  0  0  0  0  0  0  0  0
   36.3630   35.9750   15.8890 C   0  0  0  0  0  0  0  0  0  0  0  0
   33.8120   35.0040   23.8950 C   0  0  0  0  0  0  0  0  0  0  0  0
   38.2290   36.4630   17.4240 C   0  0  0  0  0  0  0  0  0  0  0  0
   34.7680   39.3270   21.7580 C   0  0  0  0  0  0  0  0  0  0  0  0
   33.9010   39.0240   26.5300 C   0  0  1  0  0  0  0  0  0  0  0  0
   33.5610   40.0330   27.6700 C   0  0  0  0  0  0  0  0  0  0  0  0
   34.2540   39.1390   24.0390 C   0  0  0  0  0  0  0  0  0  0  0  0
   34.4850   35.0490   21.4610 C   0  0  0  0  0  0  0  0  0  0  0  0
   35.0200   35.8880   20.3550 C   0  0  0  0  0  0  0  0  0  0  0  0
   35.1090   37.2370   20.4020 C   0  0  0  0  0  0  0  0  0  0  0  0
   36.1550   35.5980   18.2950 C   0  0  0  0  0  0  0  0  0  0  0  0
   37.4590   36.0530   18.5170 C   0  0  0  0  0  0  0  0  0  0  0  0
   34.7480   37.9120   21.6190 C   0  0  0  0  0  0  0  0  0  0  0  0
   34.3670   37.1590   22.7690 C   0  0  0  0  0  0  0  0  0  0  0  0
   34.0780   39.7720   25.2470 N   0  0  0  0  0  0  0  0  0  0  0  0
   37.6540   36.4520   16.1500 C   0  0  0  0  0  0  0  0  0  0  0  0
   38.3520   36.9520   15.1320 F   0  0  0  0  0  0  0  0  0  0  0  0
   34.4090   35.0450   16.8290 F   0  0  0  0  0  0  0  0  0  0  0  0
   35.3360   35.0480   19.2880 O   0  0  0  0  0  0  0  0  0  0  0  0
   34.2600   33.8600   21.3950 O   0  0  0  0  0  0  0  0  0  0  0  0
   34.2270   35.7640   22.6830 N   0  0  0  0  0  0  0  0  0  0  0  0
   34.1270   37.7650   23.9770 N   0  0  0  0  0  0  0  0  0  0  0  0
   34.5320   39.9530   22.9200 N   0  0  0  0  0  0  0  0  0  0  0  0
   35.1190   38.1640   26.8700 C   0  0  0  0  0  0  0  0  0  0  0  0
   34.7450   40.6620   28.2990 N   0  0  0  0  0  0  0  0  0  0  0  0
   35.2710   40.2340   29.4820 N   0  0  0  0  0  0  0  0  0  0  0  0
   36.3590   41.0310   29.6750 C   0  0  0  0  0  0  0  0  0  0  0  0
   36.4700   41.9330   28.5820 N   0  0  0  0  0  0  0  0  0  0  0  0
   35.4910   41.6860   27.7700 N   0  0  0  0  0  0  0  0  0  0  0  0
   35.9470   35.9700   14.8790 H   0  0  0  0  0  0  0  0  0  0  0  0
   34.5760   35.1340   24.7080 H   0  0  0  0  0  0  0  0  0  0  0  0
   32.8260   35.3890   24.2740 H   0  0  0  0  0  0  0  0  0  0  0  0
   33.7110   33.9140   23.6550 H   0  0  0  0  0  0  0  0  0  0  0  0
   39.2540   36.8170   17.5690 H   0  0  0  0  0  0  0  0  0  0  0  0
   34.9850   39.9560   20.8790 H   0  0  0  0  0  0  0  0  0  0  0  0
   32.9900   38.3570   26.4200 H   0  0  0  0  0  0  0  0  0  0  0  0
   32.8870   40.8500   27.2850 H   0  0  0  0  0  0  0  0  0  0  0  0
   32.9900   39.4630   28.4650 H   0  0  0  0  0  0  0  0  0  0  0  0
   35.4630   37.8420   19.5620 H   0  0  0  0  0  0  0  0  0  0  0  0
   37.8720   36.1130   19.5270 H   0  0  0  0  0  0  0  0  0  0  0  0
   34.1320   40.8050   25.3070 H   0  0  0  0  0  0  0  0  0  0  0  0
   35.1700   37.2860   26.1790 H   0  0  0  0  0  0  0  0  0  0  0  0
   36.0650   38.7360   26.7890 H   0  0  0  0  0  0  0  0  0  0  0  0
   35.0110   37.7610   27.9060 H   0  0  0  0  0  0  0  0  0  0  0  0
   37.0400   41.0020   30.5250 H   0  0  0  0  0  0  0  0  0  0  0  0
  1  2  2  0  0  0  0
  1 12  1  0  0  0  0
  1 19  1  0  0  0  0
  2 17  1  0  0  0  0
  2 31  1  0  0  0  0
  3 22  1  0  0  0  0
  3 32  1  0  0  0  0
  3 33  1  0  0  0  0
  3 34  1  0  0  0  0
  4 13  1  0  0  0  0
  4 17  2  0  0  0  0
  4 35  1  0  0  0  0
  5 14  2  0  0  0  0
  5 24  1  0  0  0  0
  5 36  1  0  0  0  0
  6  7  1  0  0  0  0
  6 16  1  0  0  0  0
  6 25  1  0  0  0  0
  6 37  1  6  0  0  0
  7 26  1  0  0  0  0
  7 38  1  0  0  0  0
  7 39  1  0  0  0  0
  8 16  1  0  0  0  0
  8 23  1  0  0  0  0
  8 24  2  0  0  0  0
  9 10  1  0  0  0  0
  9 21  2  0  0  0  0
  9 22  1  0  0  0  0
 10 11  2  0  0  0  0
 10 20  1  0  0  0  0
 11 14  1  0  0  0  0
 11 40  1  0  0  0  0
 12 13  2  0  0  0  0
 12 20  1  0  0  0  0
 13 41  1  0  0  0  0
 14 15  1  0  0  0  0
 15 22  1  0  0  0  0
 15 23  2  0  0  0  0
 16 42  1  0  0  0  0
 17 18  1  0  0  0  0
 25 43  1  0  0  0  0
 25 44  1  0  0  0  0
 25 45  1  0  0  0  0
 26 27  1  0  0  0  0
 26 30  1  0  0  0  0
 27 28  2  0  0  0  0
 28 29  1  0  0  0  0
 28 46  1  0  0  0  0
 29 30  2  0  0  0  0
M  END
$$$$
