18626-1
 OpenBabel02232411163D
Structure written by MMmdl.
 38 39  0  0  0  0  0  0  0  0999 V2000
   23.2220   10.8600   29.0570 C   0  0  0  0  0  0  0  0  0  0  0  0
   23.4860   11.0840   30.5300 C   0  0  0  0  0  0  0  0  0  0  0  0
   22.2150   11.1540   31.2830 O   0  0  0  0  0  0  0  0  0  0  0  0
   21.5720   10.0140   31.6130 C   0  0  0  0  0  0  0  0  0  0  0  0
   22.0490    8.8240   31.1800 N   0  0  0  0  0  0  0  0  0  0  0  0
   21.3210    7.6870   31.4930 C   0  0  0  0  0  0  0  0  0  0  0  0
   20.1600    7.7230   32.2570 C   0  0  0  0  0  0  0  0  0  0  0  0
   19.6730    8.9760   32.7230 C   0  0  0  0  0  0  0  0  0  0  0  0
   18.5170    9.0240   33.4600 N   0  0  0  0  0  0  0  0  0  0  0  0
   20.3890   10.1720   32.3960 C   0  0  0  0  0  0  0  0  0  0  0  0
   19.9840   11.4710   32.7680 C   0  0  0  0  0  0  0  0  0  0  0  0
   19.7040   12.5650   33.0340 N   0  0  0  0  0  0  0  0  0  0  0  0
   21.9040    6.5290   30.9240 N   0  0  0  0  0  0  0  0  0  0  0  0
   21.3700    5.2180   30.9110 C   0  0  0  0  0  0  0  0  0  0  0  0
   20.3270    4.9320   31.4580 O   0  0  0  0  0  0  0  0  0  0  0  0
   22.2120    4.2400   30.1050 C   0  0  0  0  0  0  0  0  0  0  0  0
   23.5370    3.9620   30.7620 C   0  0  0  0  0  0  0  0  0  0  0  0
   23.6330    2.9620   31.7410 C   0  0  0  0  0  0  0  0  0  0  0  0
   24.8580    2.7600   32.3800 C   0  0  0  0  0  0  0  0  0  0  0  0
   24.9580    1.5740   33.6270 Cl  0  0  0  0  0  0  0  0  0  0  0  0
   26.0010    3.4900   32.0470 C   0  0  0  0  0  0  0  0  0  0  0  0
   25.9000    4.4600   31.0460 C   0  0  0  0  0  0  0  0  0  0  0  0
   24.6780    4.6990   30.4090 C   0  0  0  0  0  0  0  0  0  0  0  0
   24.1700   11.0170   28.4850 H   0  0  0  0  0  0  0  0  0  0  0  0
   22.4620   11.5730   28.6670 H   0  0  0  0  0  0  0  0  0  0  0  0
   22.8720    9.8190   28.8610 H   0  0  0  0  0  0  0  0  0  0  0  0
   23.8700   12.1120   30.7390 H   0  0  0  0  0  0  0  0  0  0  0  0
   24.1360   10.2940   30.9700 H   0  0  0  0  0  0  0  0  0  0  0  0
   19.6070    6.8110   32.4900 H   0  0  0  0  0  0  0  0  0  0  0  0
   18.0180    8.1570   33.7370 H   0  0  0  0  0  0  0  0  0  0  0  0
   18.1240    9.9120   33.7720 H   0  0  0  0  0  0  0  0  0  0  0  0
   22.8050    6.6940   30.4300 H   0  0  0  0  0  0  0  0  0  0  0  0
   21.6410    3.2810   29.9910 H   0  0  0  0  0  0  0  0  0  0  0  0
   22.3760    4.6660   29.0790 H   0  0  0  0  0  0  0  0  0  0  0  0
   22.7710    2.3390   31.9890 H   0  0  0  0  0  0  0  0  0  0  0  0
   26.9570    3.3110   32.5480 H   0  0  0  0  0  0  0  0  0  0  0  0
   26.7840    5.0380   30.7560 H   0  0  0  0  0  0  0  0  0  0  0  0
   24.6360    5.4620   29.6270 H   0  0  0  0  0  0  0  0  0  0  0  0
  1  2  1  0  0  0  0
  1 24  1  0  0  0  0
  1 25  1  0  0  0  0
  1 26  1  0  0  0  0
  2  3  1  0  0  0  0
  2 27  1  0  0  0  0
  2 28  1  0  0  0  0
  3  4  1  0  0  0  0
  4 10  2  0  0  0  0
  4  5  1  0  0  0  0
  5  6  2  0  0  0  0
  6  7  1  0  0  0  0
  6 13  1  0  0  0  0
  7  8  2  0  0  0  0
  7 29  1  0  0  0  0
  8  9  1  0  0  0  0
  8 10  1  0  0  0  0
  9 30  1  0  0  0  0
  9 31  1  0  0  0  0
 10 11  1  0  0  0  0
 11 12  3  0  0  0  0
 13 14  1  0  0  0  0
 13 32  1  0  0  0  0
 14 15  2  0  0  0  0
 14 16  1  0  0  0  0
 16 17  1  0  0  0  0
 16 33  1  0  0  0  0
 16 34  1  0  0  0  0
 17 23  2  0  0  0  0
 17 18  1  0  0  0  0
 18 19  2  0  0  0  0
 18 35  1  0  0  0  0
 19 20  1  0  0  0  0
 19 21  1  0  0  0  0
 21 22  2  0  0  0  0
 21 36  1  0  0  0  0
 22 23  1  0  0  0  0
 22 37  1  0  0  0  0
 23 38  1  0  0  0  0
M  END
$$$$
