28
 OpenBabel02232411153D
Structure written by MMmdl.
 53 56  0  0  0  0  0  0  0  0999 V2000
    1.7120   28.8920    6.8480 C   0  0  0  0  0  0  0  0  0  0  0  0
   -1.7120   31.5390    8.0410 C   0  0  0  0  0  0  0  0  0  0  0  0
   -0.2940   26.0220    8.9050 C   0  0  0  0  0  0  0  0  0  0  0  0
   -1.0090   25.3100   10.0600 C   0  0  0  0  0  0  0  0  0  0  0  0
   -0.7720   23.7930    9.8650 C   0  0  0  0  0  0  0  0  0  0  0  0
   -1.3290   22.9800   11.0410 C   0  0  0  0  0  0  0  0  0  0  0  0
   -0.7630   23.4720   12.3820 C   0  0  0  0  0  0  0  0  0  0  0  0
   -1.0390   24.9700   12.5830 C   0  0  0  0  0  0  0  0  0  0  0  0
   -0.4710   25.7970   11.4200 C   0  0  0  0  0  0  0  0  0  0  0  0
    5.3030   25.6620    5.9290 C   0  0  0  0  0  0  0  0  0  0  0  0
    5.1020   24.9250    7.1040 C   0  0  0  0  0  0  0  0  0  0  0  0
    4.2100   25.4140    8.0670 C   0  0  0  0  0  0  0  0  0  0  0  0
    3.4950   26.5880    7.8570 C   0  0  0  0  0  0  0  0  0  0  0  0
    0.9790   27.9420    7.5510 N   0  0  0  0  0  0  0  0  0  0  0  0
   -0.2030   28.2870    8.1230 C   0  0  0  0  0  0  0  0  0  0  0  0
   -0.8870   27.3850    8.8420 O   0  0  0  0  0  0  0  0  0  0  0  0
   -0.7000   29.6080    7.9700 C   0  0  0  0  0  0  0  0  0  0  0  0
   -1.8310   30.2750    8.4540 N   0  0  0  0  0  0  0  0  0  0  0  0
   -0.5060   31.7540    7.2850 N   0  0  0  0  0  0  0  0  0  0  0  0
    0.1390   30.5240    7.2150 C   0  0  0  0  0  0  0  0  0  0  0  0
    1.3320   30.1980    6.6130 N   0  0  0  0  0  0  0  0  0  0  0  0
    2.9380   28.4780    6.3200 N   0  0  0  0  0  0  0  0  0  0  0  0
    3.6480   27.2890    6.6440 C   0  0  0  0  0  0  0  0  0  0  0  0
    4.5870   26.8320    5.6930 C   0  0  0  0  0  0  0  0  0  0  0  0
   -2.4000   32.3540    8.2460 H   0  0  0  0  0  0  0  0  0  0  0  0
    0.7980   26.1040    9.1000 H   0  0  0  0  0  0  0  0  0  0  0  0
   -0.5070   25.5610    7.9190 H   0  0  0  0  0  0  0  0  0  0  0  0
   -2.1050   25.5150   10.0220 H   0  0  0  0  0  0  0  0  0  0  0  0
   -1.2660   23.4600    8.9250 H   0  0  0  0  0  0  0  0  0  0  0  0
    0.3270   23.5970    9.7830 H   0  0  0  0  0  0  0  0  0  0  0  0
   -2.4360   23.0770   11.0630 H   0  0  0  0  0  0  0  0  0  0  0  0
   -1.0630   21.9050   10.9040 H   0  0  0  0  0  0  0  0  0  0  0  0
   -1.2250   22.8930   13.2140 H   0  0  0  0  0  0  0  0  0  0  0  0
    0.3390   23.3000   12.3910 H   0  0  0  0  0  0  0  0  0  0  0  0
   -2.1370   25.1380   12.6710 H   0  0  0  0  0  0  0  0  0  0  0  0
   -0.5560   25.3050   13.5290 H   0  0  0  0  0  0  0  0  0  0  0  0
    0.6430   25.7080   11.4390 H   0  0  0  0  0  0  0  0  0  0  0  0
   -0.7420   26.8680   11.5620 H   0  0  0  0  0  0  0  0  0  0  0  0
    6.0210   25.3350    5.1670 H   0  0  0  0  0  0  0  0  0  0  0  0
    4.0430   24.8800    9.0070 H   0  0  0  0  0  0  0  0  0  0  0  0
    2.8140   26.9390    8.6320 H   0  0  0  0  0  0  0  0  0  0  0  0
   -0.2250   32.6270    6.8150 H   0  0  0  0  0  0  0  0  0  0  0  0
    3.4410   29.1220    5.6630 H   0  0  0  0  0  0  0  0  0  0  0  0
    4.7480   27.3880    4.7670 H   0  0  0  0  0  0  0  0  0  0  0  0
    5.9570   23.4460    7.3270 S   0  0  0  0  0  0  0  0  0  0  0  0
    6.0000   22.7230    6.0460 O   0  0  0  0  0  0  0  0  0  0  0  0
    7.2800   23.7330    7.8900 O   0  0  0  0  0  0  0  0  0  0  0  0
    5.1250   22.4450    8.4310 N   0  0  0  0  0  0  0  0  0  0  0  0
    5.1520   22.7870    9.4410 H   0  0  0  0  0  0  0  0  0  0  0  0
    3.7440   22.0300    8.0820 C   0  0  0  0  0  0  0  0  0  0  0  0
    3.4080   21.2590    8.8270 H   0  0  0  0  0  0  0  0  0  0  0  0
    3.0120   22.8800    8.1240 H   0  0  0  0  0  0  0  0  0  0  0  0
    3.7190   21.5620    7.0670 H   0  0  0  0  0  0  0  0  0  0  0  0
  1 14  2  0  0  0  0
  1 21  1  0  0  0  0
  1 22  1  0  0  0  0
  2 18  2  0  0  0  0
  2 19  1  0  0  0  0
  2 25  1  0  0  0  0
  3  4  1  0  0  0  0
  3 16  1  0  0  0  0
  3 26  1  0  0  0  0
  3 27  1  0  0  0  0
  4  5  1  0  0  0  0
  4  9  1  0  0  0  0
  4 28  1  0  0  0  0
  5  6  1  0  0  0  0
  5 29  1  0  0  0  0
  5 30  1  0  0  0  0
  6  7  1  0  0  0  0
  6 31  1  0  0  0  0
  6 32  1  0  0  0  0
  7  8  1  0  0  0  0
  7 33  1  0  0  0  0
  7 34  1  0  0  0  0
  8  9  1  0  0  0  0
  8 35  1  0  0  0  0
  8 36  1  0  0  0  0
  9 37  1  0  0  0  0
  9 38  1  0  0  0  0
 10 11  2  0  0  0  0
 10 24  1  0  0  0  0
 10 39  1  0  0  0  0
 11 12  1  0  0  0  0
 11 45  1  0  0  0  0
 12 13  2  0  0  0  0
 12 40  1  0  0  0  0
 13 23  1  0  0  0  0
 13 41  1  0  0  0  0
 14 15  1  0  0  0  0
 15 16  1  0  0  0  0
 15 17  2  0  0  0  0
 17 18  1  0  0  0  0
 17 20  1  0  0  0  0
 19 20  1  0  0  0  0
 19 42  1  0  0  0  0
 20 21  2  0  0  0  0
 22 23  1  0  0  0  0
 22 43  1  0  0  0  0
 23 24  2  0  0  0  0
 24 44  1  0  0  0  0
 45 46  2  0  0  0  0
 45 47  2  0  0  0  0
 45 48  1  0  0  0  0
 48 49  1  0  0  0  0
 48 50  1  0  0  0  0
 50 51  1  0  0  0  0
 50 52  1  0  0  0  0
 50 53  1  0  0  0  0
M  END
$$$$
