p38a_2r
 OpenBabel02232411163D
Structure written by MMmdl.
 56 59  0  0  0  0  0  0  0  0999 V2000
   36.3270   35.9680   15.9320 C   0  0  0  0  0  0  0  0  0  0  0  0
   34.5160   35.0560   21.5210 C   0  0  0  0  0  0  0  0  0  0  0  0
   35.6270   35.5330   17.0530 C   0  0  0  0  0  0  0  0  0  0  0  0
   34.2270   39.1770   24.0410 C   0  0  0  0  0  0  0  0  0  0  0  0
   34.7690   37.9100   21.6500 C   0  0  0  0  0  0  0  0  0  0  0  0
   35.1510   37.2270   20.4450 C   0  0  0  0  0  0  0  0  0  0  0  0
   37.6240   36.4480   16.1540 C   0  0  0  0  0  0  0  0  0  0  0  0
   38.2340   36.4660   17.4110 C   0  0  0  0  0  0  0  0  0  0  0  0
   37.4990   36.0530   18.5270 C   0  0  0  0  0  0  0  0  0  0  0  0
   34.3900   37.1750   22.8150 C   0  0  0  0  0  0  0  0  0  0  0  0
   34.7660   39.3280   21.7580 C   0  0  0  0  0  0  0  0  0  0  0  0
   35.0760   35.8780   20.4160 C   0  0  0  0  0  0  0  0  0  0  0  0
   36.1920   35.5890   18.3450 C   0  0  0  0  0  0  0  0  0  0  0  0
   34.4040   35.0350   16.9310 F   0  0  0  0  0  0  0  0  0  0  0  0
   35.4120   35.0270   19.3610 O   0  0  0  0  0  0  0  0  0  0  0  0
   34.4830   39.9700   22.8980 N   0  0  0  0  0  0  0  0  0  0  0  0
   34.2800   33.8680   21.4490 O   0  0  0  0  0  0  0  0  0  0  0  0
   34.2680   35.7710   22.7440 N   0  0  0  0  0  0  0  0  0  0  0  0
   34.1750   37.8020   24.0170 N   0  0  0  0  0  0  0  0  0  0  0  0
   34.0890   39.8740   25.2250 N   0  0  0  0  0  0  0  0  0  0  0  0
   35.8830   35.9600   14.9330 H   0  0  0  0  0  0  0  0  0  0  0  0
   35.5080   37.8250   19.6020 H   0  0  0  0  0  0  0  0  0  0  0  0
   39.2610   36.8260   17.5270 H   0  0  0  0  0  0  0  0  0  0  0  0
   37.9420   36.1150   19.5240 H   0  0  0  0  0  0  0  0  0  0  0  0
   34.9900   39.9450   20.8710 H   0  0  0  0  0  0  0  0  0  0  0  0
   34.0180   40.9130   25.1650 H   0  0  0  0  0  0  0  0  0  0  0  0
   38.2930   36.9450   15.1150 F   0  0  0  0  0  0  0  0  0  0  0  0
   33.7730   37.7550   28.4290 C   0  0  0  0  0  0  0  0  0  0  0  0
   34.3940   38.2300   27.1100 C   0  0  0  0  0  0  0  0  0  0  0  0
   33.5210   39.3430   26.5020 C   0  0  0  0  0  0  0  0  0  0  0  0
   32.0630   38.8630   26.3510 C   0  0  0  0  0  0  0  0  0  0  0  0
   31.5440   38.3610   27.7040 C   0  0  0  0  0  0  0  0  0  0  0  0
   32.3990   37.3360   28.2590 O   0  0  0  0  0  0  0  0  0  0  0  0
   33.8110   38.5540   29.2040 H   0  0  0  0  0  0  0  0  0  0  0  0
   34.2600   36.8170   28.7860 H   0  0  0  0  0  0  0  0  0  0  0  0
   34.4650   37.3650   26.4060 H   0  0  0  0  0  0  0  0  0  0  0  0
   35.4240   38.6170   27.2980 H   0  0  0  0  0  0  0  0  0  0  0  0
   33.5390   40.2360   27.1990 H   0  0  0  0  0  0  0  0  0  0  0  0
   31.4200   39.6970   25.9900 H   0  0  0  0  0  0  0  0  0  0  0  0
   32.0150   38.0260   25.6110 H   0  0  0  0  0  0  0  0  0  0  0  0
   31.4650   39.1930   28.4400 H   0  0  0  0  0  0  0  0  0  0  0  0
   30.5790   37.8170   27.5890 H   0  0  0  0  0  0  0  0  0  0  0  0
   33.6710   35.0280   23.8900 C   0  0  0  0  0  0  0  0  0  0  0  0
   34.0200   33.9590   23.8530 H   0  0  0  0  0  0  0  0  0  0  0  0
   34.0470   35.4860   24.8480 H   0  0  0  0  0  0  0  0  0  0  0  0
   32.1050   35.0550   23.8840 C   0  0  0  0  0  0  0  0  0  0  0  0
   31.7420   36.3510   23.3520 O   0  0  0  0  0  0  0  0  0  0  0  0
   30.9740   36.2800   22.7500 H   0  0  0  0  0  0  0  0  0  0  0  0
   31.5810   34.9850   25.3220 C   0  0  0  0  0  0  0  0  0  0  0  0
   31.9580   35.8560   25.9090 H   0  0  0  0  0  0  0  0  0  0  0  0
   30.4690   35.0190   25.3350 H   0  0  0  0  0  0  0  0  0  0  0  0
   31.9120   34.0480   25.8210 H   0  0  0  0  0  0  0  0  0  0  0  0
   31.5000   33.9560   23.0060 C   0  0  0  0  0  0  0  0  0  0  0  0
   30.3940   34.0840   22.9350 H   0  0  0  0  0  0  0  0  0  0  0  0
   31.9290   33.9750   21.9820 H   0  0  0  0  0  0  0  0  0  0  0  0
   31.6950   32.9520   23.4500 H   0  0  0  0  0  0  0  0  0  0  0  0
  1  3  2  0  0  0  0
  1  7  1  0  0  0  0
  1 21  1  0  0  0  0
  2 12  1  0  0  0  0
  2 17  2  0  0  0  0
  2 18  1  0  0  0  0
  3 13  1  0  0  0  0
  3 14  1  0  0  0  0
  4 16  2  0  0  0  0
  4 19  1  0  0  0  0
  4 20  1  0  0  0  0
  5  6  1  0  0  0  0
  5 10  1  0  0  0  0
  5 11  2  0  0  0  0
  6 12  2  0  0  0  0
  6 22  1  0  0  0  0
  7  8  2  0  0  0  0
  7 27  1  0  0  0  0
  8  9  1  0  0  0  0
  8 23  1  0  0  0  0
  9 13  2  0  0  0  0
  9 24  1  0  0  0  0
 10 18  1  0  0  0  0
 10 19  2  0  0  0  0
 11 16  1  0  0  0  0
 11 25  1  0  0  0  0
 12 15  1  0  0  0  0
 13 15  1  0  0  0  0
 18 43  1  0  0  0  0
 20 26  1  0  0  0  0
 20 30  1  0  0  0  0
 28 29  1  0  0  0  0
 28 33  1  0  0  0  0
 28 34  1  0  0  0  0
 28 35  1  0  0  0  0
 29 30  1  0  0  0  0
 29 36  1  0  0  0  0
 29 37  1  0  0  0  0
 30 31  1  0  0  0  0
 30 38  1  0  0  0  0
 31 32  1  0  0  0  0
 31 39  1  0  0  0  0
 31 40  1  0  0  0  0
 32 33  1  0  0  0  0
 32 41  1  0  0  0  0
 32 42  1  0  0  0  0
 43 44  1  0  0  0  0
 43 45  1  0  0  0  0
 43 46  1  0  0  0  0
 46 47  1  0  0  0  0
 46 49  1  0  0  0  0
 46 53  1  0  0  0  0
 47 48  1  0  0  0  0
 49 50  1  0  0  0  0
 49 51  1  0  0  0  0
 49 52  1  0  0  0  0
 53 54  1  0  0  0  0
 53 55  1  0  0  0  0
 53 56  1  0  0  0  0
M  END
$$$$
