3flq
                    3D
 Schrodinger Suite 2022-3.
 47 49  0  0  1  0  0  0  0  0999 V2000
   15.9140   10.5150   31.6800 C   0  0  0  0  0  0  0  0  0  0  0  0
   21.3170   12.5080   31.3520 C   0  0  0  0  0  0  0  0  0  0  0  0
   17.2060   11.0180   31.8100 C   0  0  0  0  0  0  0  0  0  0  0  0
   23.8810    8.4220   31.1240 C   0  0  0  0  0  0  0  0  0  0  0  0
   26.0220    8.0590   32.4120 C   0  0  1  0  0  0  0  0  0  0  0  0
   21.4770    9.6980   30.7420 C   0  0  0  0  0  0  0  0  0  0  0  0
   20.2080   10.3680   30.6500 C   0  0  0  0  0  0  0  0  0  0  0  0
   15.2350   10.8220   30.4940 C   0  0  0  0  0  0  0  0  0  0  0  0
   15.7910   11.5940   29.4710 C   0  0  0  0  0  0  0  0  0  0  0  0
   17.0840   12.1030   29.6310 C   0  0  0  0  0  0  0  0  0  0  0  0
   22.6080   10.3880   31.2720 C   0  0  0  0  0  0  0  0  0  0  0  0
   21.6710    8.3490   30.3480 C   0  0  0  0  0  0  0  0  0  0  0  0
   20.1370   11.6760   30.9870 C   0  0  0  0  0  0  0  0  0  0  0  0
   17.7830   11.8260   30.8100 C   0  0  0  0  0  0  0  0  0  0  0  0
   23.7550   12.4690   32.0200 C   0  0  0  0  0  0  0  0  0  0  0  0
   17.9210   10.7230   32.8880 F   0  0  0  0  0  0  0  0  0  0  0  0
   14.0100   10.3300   30.3250 F   0  0  0  0  0  0  0  0  0  0  0  0
   19.0040   12.4800   31.0320 O   0  0  0  0  0  0  0  0  0  0  0  0
   22.8370    7.7020   30.5270 N   0  0  0  0  0  0  0  0  0  0  0  0
   21.3260   13.7110   31.4850 O   0  0  0  0  0  0  0  0  0  0  0  0
   22.5270   11.7570   31.5650 N   0  0  0  0  0  0  0  0  0  0  0  0
   23.8000    9.7430   31.4970 N   0  0  0  0  0  0  0  0  0  0  0  0
   25.1130    7.7830   31.2450 N   0  0  0  0  0  0  0  0  0  0  0  0
   15.2420   11.7910   28.5480 H   0  0  0  0  0  0  0  0  0  0  0  0
   17.5410   12.7000   28.8350 H   0  0  0  0  0  0  0  0  0  0  0  0
   15.4720    9.8810   32.4500 H   0  0  0  0  0  0  0  0  0  0  0  0
   19.3460    9.7880   30.3200 H   0  0  0  0  0  0  0  0  0  0  0  0
   20.8510    7.7830   29.8780 H   0  0  0  0  0  0  0  0  0  0  0  0
   25.8390    9.1040   32.7790 H   0  0  0  0  0  0  0  0  0  0  0  0
   23.4920   13.4880   32.4020 H   0  0  0  0  0  0  0  0  0  0  0  0
   24.4750   12.5620   31.1630 H   0  0  0  0  0  0  0  0  0  0  0  0
   24.2530   11.8810   32.8390 H   0  0  0  0  0  0  0  0  0  0  0  0
   25.1490    6.7850   30.9420 H   0  0  0  0  0  0  0  0  0  0  0  0
   25.7050    7.0600   33.5330 C   0  0  0  0  0  0  0  0  0  0  0  0
   26.4110    7.1930   34.3880 H   0  0  0  0  0  0  0  0  0  0  0  0
   24.6710    7.2180   33.8940 H   0  0  0  0  0  0  0  0  0  0  0  0
   25.8150    6.0110   33.1640 H   0  0  0  0  0  0  0  0  0  0  0  0
   27.4690    7.8970   31.9290 C   0  0  0  0  0  0  0  0  0  0  0  0
   28.0730    7.4640   32.7790 H   0  0  0  0  0  0  0  0  0  0  0  0
   27.4950    7.0910   31.1430 H   0  0  0  0  0  0  0  0  0  0  0  0
   28.2380    9.3690   31.3560 S   0  0  0  0  0  0  0  0  0  0  0  0
   28.3880   10.3400   32.4600 O   0  0  0  0  0  0  0  0  0  0  0  0
   29.5410    8.9790   30.8000 O   0  0  0  0  0  0  0  0  0  0  0  0
   27.1950    9.9920   30.1250 C   0  0  0  0  0  0  0  0  0  0  0  0
   27.5890   10.9420   29.6790 H   0  0  0  0  0  0  0  0  0  0  0  0
   26.1690   10.2390   30.5180 H   0  0  0  0  0  0  0  0  0  0  0  0
   27.0310    9.2640   29.2880 H   0  0  0  0  0  0  0  0  0  0  0  0
  1  3  1  0  0  0  0
  1  8  2  0  0  0  0
  1 26  1  0  0  0  0
  2 13  1  0  0  0  0
  2 20  2  0  0  0  0
  2 21  1  0  0  0  0
  3 14  2  0  0  0  0
  3 16  1  0  0  0  0
  4 19  1  0  0  0  0
  4 22  2  0  0  0  0
  4 23  1  0  0  0  0
  5 23  1  0  0  0  0
  5 29  1  0  0  0  0
  5 34  1  0  0  0  0
  5 38  1  0  0  0  0
  6  7  1  0  0  0  0
  6 11  2  0  0  0  0
  6 12  1  0  0  0  0
  7 13  2  0  0  0  0
  7 27  1  0  0  0  0
  8  9  1  0  0  0  0
  8 17  1  0  0  0  0
  9 10  2  0  0  0  0
  9 24  1  0  0  0  0
 10 14  1  0  0  0  0
 10 25  1  0  0  0  0
 11 21  1  0  0  0  0
 11 22  1  0  0  0  0
 12 19  2  0  0  0  0
 12 28  1  0  0  0  0
 13 18  1  0  0  0  0
 14 18  1  0  0  0  0
 15 21  1  0  0  0  0
 15 30  1  0  0  0  0
 15 31  1  0  0  0  0
 15 32  1  0  0  0  0
 23 33  1  0  0  0  0
 34 35  1  0  0  0  0
 34 36  1  0  0  0  0
 34 37  1  0  0  0  0
 38 39  1  0  0  0  0
 38 40  1  0  0  0  0
 38 41  1  0  0  0  0
 41 42  2  0  0  0  0
 41 43  2  0  0  0  0
 41 44  1  0  0  0  0
 44 45  1  0  0  0  0
 44 46  1  0  0  0  0
 44 47  1  0  0  0  0
M  END
$$$$
