p38a_2n
 OpenBabel02232411163D
Structure written by MMmdl.
 53 56  0  0  0  0  0  0  0  0999 V2000
   36.3530   36.0000   15.8530 C   0  0  0  0  0  0  0  0  0  0  0  0
   34.4000   35.0090   21.3410 C   0  0  0  0  0  0  0  0  0  0  0  0
   35.6700   35.5310   16.9710 C   0  0  0  0  0  0  0  0  0  0  0  0
   33.9140   39.1250   23.8400 C   0  0  0  0  0  0  0  0  0  0  0  0
   34.6770   37.8720   21.5060 C   0  0  0  0  0  0  0  0  0  0  0  0
   35.1600   37.1840   20.3390 C   0  0  0  0  0  0  0  0  0  0  0  0
   37.6460   36.4930   16.0720 C   0  0  0  0  0  0  0  0  0  0  0  0
   38.2670   36.4970   17.3250 C   0  0  0  0  0  0  0  0  0  0  0  0
   37.5460   36.0550   18.4390 C   0  0  0  0  0  0  0  0  0  0  0  0
   34.1520   37.1320   22.6060 C   0  0  0  0  0  0  0  0  0  0  0  0
   34.7160   39.2860   21.6440 C   0  0  0  0  0  0  0  0  0  0  0  0
   35.0600   35.8370   20.2910 C   0  0  0  0  0  0  0  0  0  0  0  0
   36.2460   35.5740   18.2580 C   0  0  0  0  0  0  0  0  0  0  0  0
   34.4530   35.0170   16.8500 F   0  0  0  0  0  0  0  0  0  0  0  0
   35.4910   34.9820   19.2780 O   0  0  0  0  0  0  0  0  0  0  0  0
   34.3500   39.9250   22.7660 N   0  0  0  0  0  0  0  0  0  0  0  0
   34.1920   33.8190   21.2590 O   0  0  0  0  0  0  0  0  0  0  0  0
   34.0070   35.7340   22.5210 N   0  0  0  0  0  0  0  0  0  0  0  0
   33.7910   37.7510   23.7750 N   0  0  0  0  0  0  0  0  0  0  0  0
   33.5210   39.7650   24.9980 N   0  0  0  0  0  0  0  0  0  0  0  0
   35.8980   36.0070   14.8600 H   0  0  0  0  0  0  0  0  0  0  0  0
   35.6070   37.7820   19.5400 H   0  0  0  0  0  0  0  0  0  0  0  0
   39.2890   36.8690   17.4410 H   0  0  0  0  0  0  0  0  0  0  0  0
   37.9940   36.1110   19.4340 H   0  0  0  0  0  0  0  0  0  0  0  0
   35.0610   39.9080   20.8020 H   0  0  0  0  0  0  0  0  0  0  0  0
   33.7040   40.7830   25.0990 H   0  0  0  0  0  0  0  0  0  0  0  0
   38.2980   37.0170   15.0370 F   0  0  0  0  0  0  0  0  0  0  0  0
   32.2060   39.1040   28.5230 C   0  0  0  0  0  0  0  0  0  0  0  0
   32.3100   39.7670   27.1440 C   0  0  0  0  0  0  0  0  0  0  0  0
   33.3490   39.0190   26.2830 C   0  0  0  0  0  0  0  0  0  0  0  0
   34.6980   38.9200   27.0310 C   0  0  0  0  0  0  0  0  0  0  0  0
   34.4800   38.3030   28.4170 C   0  0  0  0  0  0  0  0  0  0  0  0
   33.4930   39.0350   29.1790 O   0  0  0  0  0  0  0  0  0  0  0  0
   31.7850   38.0750   28.4390 H   0  0  0  0  0  0  0  0  0  0  0  0
   31.6150   39.7310   29.2290 H   0  0  0  0  0  0  0  0  0  0  0  0
   32.6140   40.8340   27.2640 H   0  0  0  0  0  0  0  0  0  0  0  0
   31.3180   39.7360   26.6350 H   0  0  0  0  0  0  0  0  0  0  0  0
   32.9640   37.9840   26.0570 H   0  0  0  0  0  0  0  0  0  0  0  0
   35.4040   38.2770   26.4530 H   0  0  0  0  0  0  0  0  0  0  0  0
   35.1500   39.9350   27.1320 H   0  0  0  0  0  0  0  0  0  0  0  0
   34.1540   37.2400   28.3320 H   0  0  0  0  0  0  0  0  0  0  0  0
   35.3910   38.4030   29.0510 H   0  0  0  0  0  0  0  0  0  0  0  0
   33.3340   34.9880   23.6380 C   0  0  0  0  0  0  0  0  0  0  0  0
   33.7360   33.9390   23.6480 H   0  0  0  0  0  0  0  0  0  0  0  0
   33.5950   35.4810   24.6180 H   0  0  0  0  0  0  0  0  0  0  0  0
   31.8090   34.9790   23.4510 C   0  0  0  0  0  0  0  0  0  0  0  0
   31.4350   36.0300   23.3880 H   0  0  0  0  0  0  0  0  0  0  0  0
   31.5380   34.4470   22.5080 H   0  0  0  0  0  0  0  0  0  0  0  0
   31.1070   34.2770   24.6250 C   0  0  0  0  0  0  0  0  0  0  0  0
   31.7280   33.4580   25.0590 H   0  0  0  0  0  0  0  0  0  0  0  0
   30.8110   35.0090   25.4120 H   0  0  0  0  0  0  0  0  0  0  0  0
   29.9360   33.5790   24.1640 O   0  0  0  0  0  0  0  0  0  0  0  0
   29.2430   34.2460   23.8710 H   0  0  0  0  0  0  0  0  0  0  0  0
  1  3  2  0  0  0  0
  1  7  1  0  0  0  0
  1 21  1  0  0  0  0
  2 12  1  0  0  0  0
  2 17  2  0  0  0  0
  2 18  1  0  0  0  0
  3 13  1  0  0  0  0
  3 14  1  0  0  0  0
  4 16  2  0  0  0  0
  4 19  1  0  0  0  0
  4 20  1  0  0  0  0
  5  6  1  0  0  0  0
  5 10  1  0  0  0  0
  5 11  2  0  0  0  0
  6 12  2  0  0  0  0
  6 22  1  0  0  0  0
  7  8  2  0  0  0  0
  7 27  1  0  0  0  0
  8  9  1  0  0  0  0
  8 23  1  0  0  0  0
  9 13  2  0  0  0  0
  9 24  1  0  0  0  0
 10 18  1  0  0  0  0
 10 19  2  0  0  0  0
 11 16  1  0  0  0  0
 11 25  1  0  0  0  0
 12 15  1  0  0  0  0
 13 15  1  0  0  0  0
 18 43  1  0  0  0  0
 20 26  1  0  0  0  0
 20 30  1  0  0  0  0
 28 29  1  0  0  0  0
 28 33  1  0  0  0  0
 28 34  1  0  0  0  0
 28 35  1  0  0  0  0
 29 30  1  0  0  0  0
 29 36  1  0  0  0  0
 29 37  1  0  0  0  0
 30 31  1  0  0  0  0
 30 38  1  0  0  0  0
 31 32  1  0  0  0  0
 31 39  1  0  0  0  0
 31 40  1  0  0  0  0
 32 33  1  0  0  0  0
 32 41  1  0  0  0  0
 32 42  1  0  0  0  0
 43 44  1  0  0  0  0
 43 45  1  0  0  0  0
 43 46  1  0  0  0  0
 46 47  1  0  0  0  0
 46 48  1  0  0  0  0
 46 49  1  0  0  0  0
 49 50  1  0  0  0  0
 49 51  1  0  0  0  0
 49 52  1  0  0  0  0
 52 53  1  0  0  0  0
M  END
$$$$
