26
 OpenBabel02232411153D
Structure written by MMmdl.
 49 52  0  0  0  0  0  0  0  0999 V2000
    1.9160   28.9040    6.8480 C   0  0  0  0  0  0  0  0  0  0  0  0
   -1.6080   31.4680    7.9580 C   0  0  0  0  0  0  0  0  0  0  0  0
   -0.0580   26.0120    8.9200 C   0  0  0  0  0  0  0  0  0  0  0  0
   -0.8670   25.2820    9.9980 C   0  0  0  0  0  0  0  0  0  0  0  0
   -0.6530   23.7650    9.7920 C   0  0  0  0  0  0  0  0  0  0  0  0
   -1.3500   22.9510   10.8890 C   0  0  0  0  0  0  0  0  0  0  0  0
   -0.9030   23.3920   12.2920 C   0  0  0  0  0  0  0  0  0  0  0  0
   -1.1250   24.8990   12.5010 C   0  0  0  0  0  0  0  0  0  0  0  0
   -0.4300   25.7250   11.4080 C   0  0  0  0  0  0  0  0  0  0  0  0
    4.3200   25.2250    7.7350 C   0  0  0  0  0  0  0  0  0  0  0  0
    5.0930   24.8140    6.6440 C   0  0  0  0  0  0  0  0  0  0  0  0
    5.2950   25.6500    5.5290 C   0  0  0  0  0  0  0  0  0  0  0  0
    4.6540   26.8810    5.4900 C   0  0  0  0  0  0  0  0  0  0  0  0
    1.1900   27.9380    7.5440 N   0  0  0  0  0  0  0  0  0  0  0  0
   -0.0160   28.2570    8.0740 C   0  0  0  0  0  0  0  0  0  0  0  0
   -0.6990   27.3450    8.7870 O   0  0  0  0  0  0  0  0  0  0  0  0
   -0.5520   29.5600    7.8990 C   0  0  0  0  0  0  0  0  0  0  0  0
   -1.7060   30.2000    8.3650 N   0  0  0  0  0  0  0  0  0  0  0  0
   -0.3920   31.7130    7.2250 N   0  0  0  0  0  0  0  0  0  0  0  0
    0.2800   30.4960    7.1580 C   0  0  0  0  0  0  0  0  0  0  0  0
    1.4850   30.1960    6.5770 N   0  0  0  0  0  0  0  0  0  0  0  0
    3.2010   28.5760    6.4460 N   0  0  0  0  0  0  0  0  0  0  0  0
    3.8200   27.2840    6.5590 C   0  0  0  0  0  0  0  0  0  0  0  0
    3.6910   26.4720    7.6960 C   0  0  0  0  0  0  0  0  0  0  0  0
   -2.3150   32.2690    8.1510 H   0  0  0  0  0  0  0  0  0  0  0  0
    1.0030   26.1470    9.2280 H   0  0  0  0  0  0  0  0  0  0  0  0
   -0.1460   25.5320    7.9240 H   0  0  0  0  0  0  0  0  0  0  0  0
   -1.9520   25.5140    9.8790 H   0  0  0  0  0  0  0  0  0  0  0  0
   -1.0580   23.4650    8.8010 H   0  0  0  0  0  0  0  0  0  0  0  0
    0.4410   23.5380    9.8140 H   0  0  0  0  0  0  0  0  0  0  0  0
   -2.4490   23.0900   10.8030 H   0  0  0  0  0  0  0  0  0  0  0  0
   -1.1120   21.8700   10.7570 H   0  0  0  0  0  0  0  0  0  0  0  0
   -1.4800   22.8240   13.0570 H   0  0  0  0  0  0  0  0  0  0  0  0
    0.1800   23.1610   12.4170 H   0  0  0  0  0  0  0  0  0  0  0  0
   -2.2170   25.1160   12.5060 H   0  0  0  0  0  0  0  0  0  0  0  0
   -0.7060   25.1930   13.4920 H   0  0  0  0  0  0  0  0  0  0  0  0
    0.6740   25.5950   11.5180 H   0  0  0  0  0  0  0  0  0  0  0  0
   -0.6740   26.8010   11.5510 H   0  0  0  0  0  0  0  0  0  0  0  0
    4.1910   24.5930    8.6160 H   0  0  0  0  0  0  0  0  0  0  0  0
    5.9340   25.3320    4.7020 H   0  0  0  0  0  0  0  0  0  0  0  0
    4.7990   27.5330    4.6250 H   0  0  0  0  0  0  0  0  0  0  0  0
   -0.1320   32.5970    6.7630 H   0  0  0  0  0  0  0  0  0  0  0  0
    3.6820   29.2170    5.7730 H   0  0  0  0  0  0  0  0  0  0  0  0
    3.0980   26.7900    8.5580 H   0  0  0  0  0  0  0  0  0  0  0  0
    5.7770   23.6110    6.5690 O   0  0  0  0  0  0  0  0  0  0  0  0
    5.1360   22.4740    7.2040 C   0  0  0  0  0  0  0  0  0  0  0  0
    5.8180   21.6410    6.9190 H   0  0  0  0  0  0  0  0  0  0  0  0
    5.0960   22.6180    8.3040 H   0  0  0  0  0  0  0  0  0  0  0  0
    4.1190   22.3290    6.7770 H   0  0  0  0  0  0  0  0  0  0  0  0
  1 14  2  0  0  0  0
  1 21  1  0  0  0  0
  1 22  1  0  0  0  0
  2 18  2  0  0  0  0
  2 19  1  0  0  0  0
  2 25  1  0  0  0  0
  3  4  1  0  0  0  0
  3 16  1  0  0  0  0
  3 26  1  0  0  0  0
  3 27  1  0  0  0  0
  4  5  1  0  0  0  0
  4  9  1  0  0  0  0
  4 28  1  0  0  0  0
  5  6  1  0  0  0  0
  5 29  1  0  0  0  0
  5 30  1  0  0  0  0
  6  7  1  0  0  0  0
  6 31  1  0  0  0  0
  6 32  1  0  0  0  0
  7  8  1  0  0  0  0
  7 33  1  0  0  0  0
  7 34  1  0  0  0  0
  8  9  1  0  0  0  0
  8 35  1  0  0  0  0
  8 36  1  0  0  0  0
  9 37  1  0  0  0  0
  9 38  1  0  0  0  0
 10 11  2  0  0  0  0
 10 24  1  0  0  0  0
 10 39  1  0  0  0  0
 11 12  1  0  0  0  0
 11 45  1  0  0  0  0
 12 13  2  0  0  0  0
 12 40  1  0  0  0  0
 13 23  1  0  0  0  0
 13 41  1  0  0  0  0
 14 15  1  0  0  0  0
 15 16  1  0  0  0  0
 15 17  2  0  0  0  0
 17 18  1  0  0  0  0
 17 20  1  0  0  0  0
 19 20  1  0  0  0  0
 19 42  1  0  0  0  0
 20 21  2  0  0  0  0
 22 23  1  0  0  0  0
 22 43  1  0  0  0  0
 23 24  2  0  0  0  0
 24 44  1  0  0  0  0
 45 46  1  0  0  0  0
 46 47  1  0  0  0  0
 46 48  1  0  0  0  0
 46 49  1  0  0  0  0
M  END
$$$$
