2f
                    3D
 Schrodinger Suite 2022-3.
 46 49  0  0  1  0  0  0  0  0999 V2000
   27.2200    8.9320   30.4990 C   0  0  0  0  0  0  0  0  0  0  0  0
   28.5860    9.5160   30.8810 C   0  0  0  0  0  0  0  0  0  0  0  0
   28.6650    8.2230   32.9240 C   0  0  0  0  0  0  0  0  0  0  0  0
   27.3210    7.5520   32.6180 C   0  0  0  0  0  0  0  0  0  0  0  0
   15.7690   11.3120   29.7920 C   0  0  0  0  0  0  0  0  0  0  0  0
   29.3500    8.6150   31.7140 O   0  0  0  0  0  0  0  0  0  0  0  0
   21.3840   12.5150   31.2600 C   0  0  0  0  0  0  0  0  0  0  0  0
   17.0340   11.8970   29.6910 C   0  0  0  0  0  0  0  0  0  0  0  0
   24.0210    8.4590   31.1310 C   0  0  0  0  0  0  0  0  0  0  0  0
   26.4540    8.5080   31.7720 C   0  0  0  0  0  0  0  0  0  0  0  0
   21.5790    9.6790   30.7820 C   0  0  0  0  0  0  0  0  0  0  0  0
   20.3070   10.3280   30.6560 C   0  0  0  0  0  0  0  0  0  0  0  0
   15.2990   10.6830   30.9470 C   0  0  0  0  0  0  0  0  0  0  0  0
   16.1680   10.5800   32.0380 C   0  0  0  0  0  0  0  0  0  0  0  0
   17.4660   11.0940   31.9730 C   0  0  0  0  0  0  0  0  0  0  0  0
   22.7210   10.4170   31.2120 C   0  0  0  0  0  0  0  0  0  0  0  0
   21.7750    8.3040   30.4780 C   0  0  0  0  0  0  0  0  0  0  0  0
   20.2260   11.6600   30.8940 C   0  0  0  0  0  0  0  0  0  0  0  0
   17.8610   11.7670   30.8110 C   0  0  0  0  0  0  0  0  0  0  0  0
   23.8250   12.5340   31.9200 C   0  0  0  0  0  0  0  0  0  0  0  0
   19.0900   12.4490   30.7470 O   0  0  0  0  0  0  0  0  0  0  0  0
   22.9510    7.6840   30.6340 N   0  0  0  0  0  0  0  0  0  0  0  0
   21.3660   13.7180   31.3990 O   0  0  0  0  0  0  0  0  0  0  0  0
   22.6160   11.7950   31.4600 N   0  0  0  0  0  0  0  0  0  0  0  0
   23.9430    9.8150   31.3820 N   0  0  0  0  0  0  0  0  0  0  0  0
   25.1890    7.7940   31.4220 N   0  0  0  0  0  0  0  0  0  0  0  0
   15.8350   10.0710   32.9410 H   0  0  0  0  0  0  0  0  0  0  0  0
   18.1590   10.9500   32.8010 H   0  0  0  0  0  0  0  0  0  0  0  0
   14.9870   11.3180   28.7170 F   0  0  0  0  0  0  0  0  0  0  0  0
   19.4460    9.7230   30.3670 H   0  0  0  0  0  0  0  0  0  0  0  0
   20.9360    7.7080   30.0850 H   0  0  0  0  0  0  0  0  0  0  0  0
   27.3550    8.0430   29.8410 H   0  0  0  0  0  0  0  0  0  0  0  0
   26.6390    9.7030   29.9420 H   0  0  0  0  0  0  0  0  0  0  0  0
   28.4670   10.4860   31.4160 H   0  0  0  0  0  0  0  0  0  0  0  0
   29.2480    9.6210   29.9920 H   0  0  0  0  0  0  0  0  0  0  0  0
   29.3810    7.5020   33.3810 H   0  0  0  0  0  0  0  0  0  0  0  0
   28.5240    9.1220   33.5680 H   0  0  0  0  0  0  0  0  0  0  0  0
   26.7990    7.3060   33.5740 H   0  0  0  0  0  0  0  0  0  0  0  0
   27.4920    6.5980   32.0610 H   0  0  0  0  0  0  0  0  0  0  0  0
   26.1960    9.4190   32.3810 H   0  0  0  0  0  0  0  0  0  0  0  0
   24.6070   12.5320   31.1130 H   0  0  0  0  0  0  0  0  0  0  0  0
   24.2560   12.0310   32.8280 H   0  0  0  0  0  0  0  0  0  0  0  0
   23.5600   13.5920   32.1760 H   0  0  0  0  0  0  0  0  0  0  0  0
   25.3060    6.8170   31.0820 H   0  0  0  0  0  0  0  0  0  0  0  0
   17.3740   12.3970   28.7820 H   0  0  0  0  0  0  0  0  0  0  0  0
   14.2990   10.2550   30.9920 H   0  0  0  0  0  0  0  0  0  0  0  0
  1  2  1  0  0  0  0
  1 10  1  0  0  0  0
  1 32  1  0  0  0  0
  1 33  1  0  0  0  0
  2  6  1  0  0  0  0
  2 34  1  0  0  0  0
  2 35  1  0  0  0  0
  3  4  1  0  0  0  0
  3  6  1  0  0  0  0
  3 36  1  0  0  0  0
  3 37  1  0  0  0  0
  4 10  1  0  0  0  0
  4 38  1  0  0  0  0
  4 39  1  0  0  0  0
  5  8  1  0  0  0  0
  5 13  2  0  0  0  0
  5 29  1  0  0  0  0
  7 18  1  0  0  0  0
  7 23  2  0  0  0  0
  7 24  1  0  0  0  0
  8 19  2  0  0  0  0
  8 45  1  0  0  0  0
  9 22  1  0  0  0  0
  9 25  2  0  0  0  0
  9 26  1  0  0  0  0
 10 26  1  0  0  0  0
 10 40  1  0  0  0  0
 11 12  1  0  0  0  0
 11 16  2  0  0  0  0
 11 17  1  0  0  0  0
 12 18  2  0  0  0  0
 12 30  1  0  0  0  0
 13 14  1  0  0  0  0
 13 46  1  0  0  0  0
 14 15  2  0  0  0  0
 14 27  1  0  0  0  0
 15 19  1  0  0  0  0
 15 28  1  0  0  0  0
 16 24  1  0  0  0  0
 16 25  1  0  0  0  0
 17 22  2  0  0  0  0
 17 31  1  0  0  0  0
 18 21  1  0  0  0  0
 19 21  1  0  0  0  0
 20 24  1  0  0  0  0
 20 41  1  0  0  0  0
 20 42  1  0  0  0  0
 20 43  1  0  0  0  0
 26 44  1  0  0  0  0
M  END
$$$$
