18639-1
 OpenBabel02232411163D
Structure written by MMmdl.
 48 49  0  0  0  0  0  0  0  0999 V2000
   23.8630   12.6060   30.3420 C   0  0  0  0  0  0  0  0  0  0  0  0
   23.4000   11.1650   30.4450 C   0  0  0  0  0  0  0  0  0  0  0  0
   22.1500   11.2690   31.2430 O   0  0  0  0  0  0  0  0  0  0  0  0
   21.5210   10.1280   31.5950 C   0  0  0  0  0  0  0  0  0  0  0  0
   22.0060    8.9410   31.1580 N   0  0  0  0  0  0  0  0  0  0  0  0
   21.2870    7.8010   31.4850 C   0  0  0  0  0  0  0  0  0  0  0  0
   20.1330    7.8340   32.2600 C   0  0  0  0  0  0  0  0  0  0  0  0
   19.6400    9.0830   32.7260 C   0  0  0  0  0  0  0  0  0  0  0  0
   18.4940    9.1190   33.4770 N   0  0  0  0  0  0  0  0  0  0  0  0
   20.3430   10.2830   32.3840 C   0  0  0  0  0  0  0  0  0  0  0  0
   19.9240   11.5810   32.7440 C   0  0  0  0  0  0  0  0  0  0  0  0
   19.6300   12.6730   32.9990 N   0  0  0  0  0  0  0  0  0  0  0  0
   21.8680    6.6360   30.9290 N   0  0  0  0  0  0  0  0  0  0  0  0
   21.2860    5.3530   30.8670 C   0  0  0  0  0  0  0  0  0  0  0  0
   20.2050    5.0920   31.3510 O   0  0  0  0  0  0  0  0  0  0  0  0
   22.1080    4.3530   30.0610 C   0  0  0  0  0  0  0  0  0  0  0  0
   23.4810    4.0900   30.6070 C   0  0  0  0  0  0  0  0  0  0  0  0
   24.5720    4.9510   30.2700 C   0  0  0  0  0  0  0  0  0  0  0  0
   24.2030    5.9920   29.4280 O   0  0  0  0  0  0  0  0  0  0  0  0
   25.1470    7.0870   29.2600 C   0  0  0  0  0  0  0  0  0  0  0  0
   25.8580    4.7140   30.7290 C   0  0  0  0  0  0  0  0  0  0  0  0
   26.1010    3.6040   31.5660 C   0  0  0  0  0  0  0  0  0  0  0  0
   27.4610    3.3520   32.0500 N   0  3  0  0  0  0  0  0  0  0  0  0
   27.6100    2.5550   32.9640 O   0  5  0  0  0  0  0  0  0  0  0  0
   28.3920    3.9430   31.5160 O   0  0  0  0  0  0  0  0  0  0  0  0
   25.0340    2.7410   31.9080 C   0  0  0  0  0  0  0  0  0  0  0  0
   23.7330    2.9900   31.4120 C   0  0  0  0  0  0  0  0  0  0  0  0
   25.3930    1.7100   32.7230 O   0  0  0  0  0  0  0  0  0  0  0  0
   24.3980    0.6780   32.9910 C   0  0  0  0  0  0  0  0  0  0  0  0
   24.7700   12.6420   29.6870 H   0  0  0  0  0  0  0  0  0  0  0  0
   23.0760   13.2470   29.8800 H   0  0  0  0  0  0  0  0  0  0  0  0
   24.1260   13.0220   31.3400 H   0  0  0  0  0  0  0  0  0  0  0  0
   23.1310   10.7310   29.4570 H   0  0  0  0  0  0  0  0  0  0  0  0
   24.1180   10.5220   31.0020 H   0  0  0  0  0  0  0  0  0  0  0  0
   19.5880    6.9180   32.4990 H   0  0  0  0  0  0  0  0  0  0  0  0
   18.0000    8.2450   33.7410 H   0  0  0  0  0  0  0  0  0  0  0  0
   18.0890   10.0030   33.7870 H   0  0  0  0  0  0  0  0  0  0  0  0
   22.7820    6.7850   30.4330 H   0  0  0  0  0  0  0  0  0  0  0  0
   21.5370    3.3870   30.0110 H   0  0  0  0  0  0  0  0  0  0  0  0
   22.2080    4.7600   29.0150 H   0  0  0  0  0  0  0  0  0  0  0  0
   25.4780    7.4740   30.2480 H   0  0  0  0  0  0  0  0  0  0  0  0
   25.9950    6.7430   28.6320 H   0  0  0  0  0  0  0  0  0  0  0  0
   24.5170    7.8360   28.7270 H   0  0  0  0  0  0  0  0  0  0  0  0
   26.6940    5.3650   30.4450 H   0  0  0  0  0  0  0  0  0  0  0  0
   22.9210    2.3010   31.6590 H   0  0  0  0  0  0  0  0  0  0  0  0
   24.9910   -0.0480   33.5970 H   0  0  0  0  0  0  0  0  0  0  0  0
   23.5590    1.1000   33.5840 H   0  0  0  0  0  0  0  0  0  0  0  0
   24.0580    0.2180   32.0380 H   0  0  0  0  0  0  0  0  0  0  0  0
  1  2  1  0  0  0  0
  1 30  1  0  0  0  0
  1 31  1  0  0  0  0
  1 32  1  0  0  0  0
  2  3  1  0  0  0  0
  2 33  1  0  0  0  0
  2 34  1  0  0  0  0
  3  4  1  0  0  0  0
  4 10  2  0  0  0  0
  4  5  1  0  0  0  0
  5  6  2  0  0  0  0
  6  7  1  0  0  0  0
  6 13  1  0  0  0  0
  7  8  2  0  0  0  0
  7 35  1  0  0  0  0
  8  9  1  0  0  0  0
  8 10  1  0  0  0  0
  9 36  1  0  0  0  0
  9 37  1  0  0  0  0
 10 11  1  0  0  0  0
 11 12  3  0  0  0  0
 13 14  1  0  0  0  0
 13 38  1  0  0  0  0
 14 15  2  0  0  0  0
 14 16  1  0  0  0  0
 16 17  1  0  0  0  0
 16 39  1  0  0  0  0
 16 40  1  0  0  0  0
 17 27  2  0  0  0  0
 17 18  1  0  0  0  0
 18 19  1  0  0  0  0
 18 21  2  0  0  0  0
 19 20  1  0  0  0  0
 20 41  1  0  0  0  0
 20 42  1  0  0  0  0
 20 43  1  0  0  0  0
 21 22  1  0  0  0  0
 21 44  1  0  0  0  0
 22 23  1  0  0  0  0
 22 26  2  0  0  0  0
 23 24  1  0  0  0  0
 23 25  2  0  0  0  0
 26 27  1  0  0  0  0
 26 28  1  0  0  0  0
 27 45  1  0  0  0  0
 28 29  1  0  0  0  0
 29 46  1  0  0  0  0
 29 47  1  0  0  0  0
 29 48  1  0  0  0  0
M  CHG  2  23   1  24  -1
M  END
$$$$
