18632-1
 OpenBabel02232411163D
Structure written by MMmdl.
 42 43  0  0  0  0  0  0  0  0999 V2000
   23.1940   10.7580   29.0820 C   0  0  0  0  0  0  0  0  0  0  0  0
   23.4570   11.0170   30.5500 C   0  0  0  0  0  0  0  0  0  0  0  0
   22.1860   11.1120   31.3000 O   0  0  0  0  0  0  0  0  0  0  0  0
   21.5330    9.9860   31.6570 C   0  0  0  0  0  0  0  0  0  0  0  0
   22.0060    8.7800   31.2660 N   0  0  0  0  0  0  0  0  0  0  0  0
   21.2620    7.6600   31.6030 C   0  0  0  0  0  0  0  0  0  0  0  0
   20.0900    7.7310   32.3470 C   0  0  0  0  0  0  0  0  0  0  0  0
   19.6120    8.9990   32.7730 C   0  0  0  0  0  0  0  0  0  0  0  0
   18.4500    9.0690   33.4990 N   0  0  0  0  0  0  0  0  0  0  0  0
   20.3420   10.1780   32.4210 C   0  0  0  0  0  0  0  0  0  0  0  0
   19.9410   11.4900   32.7530 C   0  0  0  0  0  0  0  0  0  0  0  0
   19.6620   12.5920   32.9850 N   0  0  0  0  0  0  0  0  0  0  0  0
   21.8410    6.4720   31.0920 N   0  0  0  0  0  0  0  0  0  0  0  0
   21.2060    5.2130   31.0070 C   0  0  0  0  0  0  0  0  0  0  0  0
   20.0910    5.0280   31.4530 O   0  0  0  0  0  0  0  0  0  0  0  0
   21.9670    4.1250   30.2710 C   0  0  0  0  0  0  0  0  0  0  0  0
   23.4690    4.2390   30.2760 C   0  0  0  0  0  0  0  0  0  0  0  0
   24.2200    3.4960   31.1860 C   0  0  0  0  0  0  0  0  0  0  0  0
   25.6280    3.6090   31.1590 C   0  0  0  0  0  0  0  0  0  0  0  0
   26.2370    2.8190   32.1050 O   0  0  0  0  0  0  0  0  0  0  0  0
   27.6870    2.8410   32.1790 C   0  0  0  0  0  0  0  0  0  0  0  0
   26.2820    4.4450   30.2470 C   0  0  0  0  0  0  0  0  0  0  0  0
   25.5070    5.1840   29.3480 C   0  0  0  0  0  0  0  0  0  0  0  0
   24.1150    5.0850   29.3540 C   0  0  0  0  0  0  0  0  0  0  0  0
   24.1500   10.8720   28.5130 H   0  0  0  0  0  0  0  0  0  0  0  0
   22.8150    9.7230   28.9120 H   0  0  0  0  0  0  0  0  0  0  0  0
   22.4580   11.4820   28.6660 H   0  0  0  0  0  0  0  0  0  0  0  0
   24.1020   10.2350   31.0090 H   0  0  0  0  0  0  0  0  0  0  0  0
   23.8460   12.0480   30.7330 H   0  0  0  0  0  0  0  0  0  0  0  0
   19.5190    6.8330   32.5950 H   0  0  0  0  0  0  0  0  0  0  0  0
   17.9480    8.2050   33.7830 H   0  0  0  0  0  0  0  0  0  0  0  0
   18.0540    9.9640   33.7860 H   0  0  0  0  0  0  0  0  0  0  0  0
   22.7750    6.5980   30.6540 H   0  0  0  0  0  0  0  0  0  0  0  0
   21.6790    3.1350   30.7260 H   0  0  0  0  0  0  0  0  0  0  0  0
   21.5940    4.1350   29.2110 H   0  0  0  0  0  0  0  0  0  0  0  0
   23.7490    2.8270   31.9070 H   0  0  0  0  0  0  0  0  0  0  0  0
   27.8830    2.1300   33.0150 H   0  0  0  0  0  0  0  0  0  0  0  0
   28.1260    2.4700   31.2260 H   0  0  0  0  0  0  0  0  0  0  0  0
   28.0440    3.8640   32.4270 H   0  0  0  0  0  0  0  0  0  0  0  0
   27.3690    4.5390   30.2160 H   0  0  0  0  0  0  0  0  0  0  0  0
   26.0050    5.8520   28.6370 H   0  0  0  0  0  0  0  0  0  0  0  0
   23.5400    5.6830   28.6490 H   0  0  0  0  0  0  0  0  0  0  0  0
  1  2  1  0  0  0  0
  1 25  1  0  0  0  0
  1 26  1  0  0  0  0
  1 27  1  0  0  0  0
  2  3  1  0  0  0  0
  2 28  1  0  0  0  0
  2 29  1  0  0  0  0
  3  4  1  0  0  0  0
  4 10  2  0  0  0  0
  4  5  1  0  0  0  0
  5  6  2  0  0  0  0
  6  7  1  0  0  0  0
  6 13  1  0  0  0  0
  7  8  2  0  0  0  0
  7 30  1  0  0  0  0
  8  9  1  0  0  0  0
  8 10  1  0  0  0  0
  9 31  1  0  0  0  0
  9 32  1  0  0  0  0
 10 11  1  0  0  0  0
 11 12  3  0  0  0  0
 13 14  1  0  0  0  0
 13 33  1  0  0  0  0
 14 15  2  0  0  0  0
 14 16  1  0  0  0  0
 16 17  1  0  0  0  0
 16 34  1  0  0  0  0
 16 35  1  0  0  0  0
 17 24  2  0  0  0  0
 17 18  1  0  0  0  0
 18 19  2  0  0  0  0
 18 36  1  0  0  0  0
 19 20  1  0  0  0  0
 19 22  1  0  0  0  0
 20 21  1  0  0  0  0
 21 37  1  0  0  0  0
 21 38  1  0  0  0  0
 21 39  1  0  0  0  0
 22 23  2  0  0  0  0
 22 40  1  0  0  0  0
 23 24  1  0  0  0  0
 23 41  1  0  0  0  0
 24 42  1  0  0  0  0
M  END
$$$$
