p38a_2aa
 OpenBabel02232411163D
Structure written by MMmdl.
 43 45  0  0  0  0  0  0  0  0999 V2000
   38.2530   36.5440   17.1120 C   0  0  0  0  0  0  0  0  0  0  0  0
   34.5640   35.0230   21.0960 C   0  0  0  0  0  0  0  0  0  0  0  0
   37.4270   36.0720   18.1280 C   0  0  0  0  0  0  0  0  0  0  0  0
   34.0790   39.0230   23.7700 C   0  0  0  0  0  0  0  0  0  0  0  0
   33.5120   38.8390   26.2150 C   0  0  0  0  0  0  0  0  0  0  0  0
   34.6420   37.8990   21.3230 C   0  0  0  0  0  0  0  0  0  0  0  0
   34.9750   37.2790   20.0700 C   0  0  0  0  0  0  0  0  0  0  0  0
   37.6460   36.7550   15.8660 C   0  0  0  0  0  0  0  0  0  0  0  0
   36.2980   36.4950   15.6100 C   0  0  0  0  0  0  0  0  0  0  0  0
   35.4930   36.0060   16.6430 C   0  0  0  0  0  0  0  0  0  0  0  0
   34.3490   37.0890   22.4610 C   0  0  0  0  0  0  0  0  0  0  0  0
   34.6110   39.3070   21.5060 C   0  0  0  0  0  0  0  0  0  0  0  0
   34.9670   35.9280   19.9880 C   0  0  0  0  0  0  0  0  0  0  0  0
   36.0640   35.7860   17.8990 C   0  0  0  0  0  0  0  0  0  0  0  0
   34.0220   34.8730   23.5580 C   0  0  0  0  0  0  0  0  0  0  0  0
   37.9170   35.8870   19.3480 F   0  0  0  0  0  0  0  0  0  0  0  0
   35.2900   35.1480   18.8790 O   0  0  0  0  0  0  0  0  0  0  0  0
   34.3460   39.8850   22.6880 N   0  0  0  0  0  0  0  0  0  0  0  0
   34.4390   33.8210   21.0160 O   0  0  0  0  0  0  0  0  0  0  0  0
   34.3180   35.6910   22.3480 N   0  0  0  0  0  0  0  0  0  0  0  0
   34.0860   37.6460   23.6890 N   0  0  0  0  0  0  0  0  0  0  0  0
   33.7650   39.6150   24.9720 N   0  0  0  0  0  0  0  0  0  0  0  0
   39.3070   36.7760   17.2870 H   0  0  0  0  0  0  0  0  0  0  0  0
   34.8210   38.7680   27.0500 C   0  0  0  0  0  0  0  0  0  0  0  0
   35.2360   37.9230   19.2280 H   0  0  0  0  0  0  0  0  0  0  0  0
   35.8610   36.6860   14.6280 H   0  0  0  0  0  0  0  0  0  0  0  0
   34.4300   35.8130   16.4640 H   0  0  0  0  0  0  0  0  0  0  0  0
   34.8070   39.9780   20.6520 H   0  0  0  0  0  0  0  0  0  0  0  0
   34.7830   35.0830   24.3570 H   0  0  0  0  0  0  0  0  0  0  0  0
   33.0050   35.1320   23.9600 H   0  0  0  0  0  0  0  0  0  0  0  0
   34.0470   33.7810   23.3050 H   0  0  0  0  0  0  0  0  0  0  0  0
   33.8070   40.6440   25.0650 H   0  0  0  0  0  0  0  0  0  0  0  0
   38.3850   37.2680   14.8850 F   0  0  0  0  0  0  0  0  0  0  0  0
   32.3560   39.5030   27.0040 C   0  0  0  0  0  0  0  0  0  0  0  0
   32.7750   40.7020   27.6700 O   0  0  0  0  0  0  0  0  0  0  0  0
   32.9910   41.3920   26.9680 H   0  0  0  0  0  0  0  0  0  0  0  0
   31.5000   39.7350   26.3300 H   0  0  0  0  0  0  0  0  0  0  0  0
   32.0490   38.8370   27.8470 H   0  0  0  0  0  0  0  0  0  0  0  0
   34.6810   37.8180   28.1130 O   0  0  0  0  0  0  0  0  0  0  0  0
   35.6810   38.4840   26.4030 H   0  0  0  0  0  0  0  0  0  0  0  0
   35.0000   39.7300   27.5880 H   0  0  0  0  0  0  0  0  0  0  0  0
   34.6380   36.9000   27.7330 H   0  0  0  0  0  0  0  0  0  0  0  0
   33.1790   37.7920   25.9470 H   0  0  0  0  0  0  0  0  0  0  0  0
  1  3  2  0  0  0  0
  1  8  1  0  0  0  0
  1 23  1  0  0  0  0
  2 13  1  0  0  0  0
  2 19  2  0  0  0  0
  2 20  1  0  0  0  0
  3 14  1  0  0  0  0
  3 16  1  0  0  0  0
  4 18  2  0  0  0  0
  4 21  1  0  0  0  0
  4 22  1  0  0  0  0
  5 22  1  0  0  0  0
  5 24  1  0  0  0  0
  5 34  1  0  0  0  0
  5 43  1  0  0  0  0
  6  7  1  0  0  0  0
  6 11  1  0  0  0  0
  6 12  2  0  0  0  0
  7 13  2  0  0  0  0
  7 25  1  0  0  0  0
  8  9  2  0  0  0  0
  8 33  1  0  0  0  0
  9 10  1  0  0  0  0
  9 26  1  0  0  0  0
 10 14  2  0  0  0  0
 10 27  1  0  0  0  0
 11 20  1  0  0  0  0
 11 21  2  0  0  0  0
 12 18  1  0  0  0  0
 12 28  1  0  0  0  0
 13 17  1  0  0  0  0
 14 17  1  0  0  0  0
 15 20  1  0  0  0  0
 15 29  1  0  0  0  0
 15 30  1  0  0  0  0
 15 31  1  0  0  0  0
 22 32  1  0  0  0  0
 24 39  1  0  0  0  0
 24 40  1  0  0  0  0
 24 41  1  0  0  0  0
 34 35  1  0  0  0  0
 34 37  1  0  0  0  0
 34 38  1  0  0  0  0
 35 36  1  0  0  0  0
 39 42  1  0  0  0  0
M  END
$$$$
