18639-1
 OpenBabel02232411163D
Structure written by MMmdl.
 48 49  0  0  0  0  0  0  0  0999 V2000
   24.4450   10.9080   30.7600 C   0  0  0  0  0  0  0  0  0  0  0  0
   23.1180   11.2590   30.1200 C   0  0  0  0  0  0  0  0  0  0  0  0
   22.0410   11.3190   31.1300 O   0  0  0  0  0  0  0  0  0  0  0  0
   21.4560   10.1690   31.5390 C   0  0  0  0  0  0  0  0  0  0  0  0
   21.9370    8.9810   31.1050 N   0  0  0  0  0  0  0  0  0  0  0  0
   21.2440    7.8370   31.4700 C   0  0  0  0  0  0  0  0  0  0  0  0
   20.1070    7.8680   32.2700 C   0  0  0  0  0  0  0  0  0  0  0  0
   19.6170    9.1190   32.7350 C   0  0  0  0  0  0  0  0  0  0  0  0
   18.4830    9.1540   33.5040 N   0  0  0  0  0  0  0  0  0  0  0  0
   20.3060   10.3200   32.3710 C   0  0  0  0  0  0  0  0  0  0  0  0
   19.8930   11.6170   32.7400 C   0  0  0  0  0  0  0  0  0  0  0  0
   19.6050   12.7100   33.0000 N   0  0  0  0  0  0  0  0  0  0  0  0
   21.8320    6.6740   30.9220 N   0  0  0  0  0  0  0  0  0  0  0  0
   21.2600    5.3860   30.8620 C   0  0  0  0  0  0  0  0  0  0  0  0
   20.1830    5.1180   31.3500 O   0  0  0  0  0  0  0  0  0  0  0  0
   22.0920    4.3940   30.0560 C   0  0  0  0  0  0  0  0  0  0  0  0
   23.4620    4.1360   30.6100 C   0  0  0  0  0  0  0  0  0  0  0  0
   24.5510    5.0090   30.2930 C   0  0  0  0  0  0  0  0  0  0  0  0
   24.1820    6.0620   29.4660 O   0  0  0  0  0  0  0  0  0  0  0  0
   25.1340    7.1480   29.2890 C   0  0  0  0  0  0  0  0  0  0  0  0
   25.8350    4.7710   30.7560 C   0  0  0  0  0  0  0  0  0  0  0  0
   26.0780    3.6520   31.5810 C   0  0  0  0  0  0  0  0  0  0  0  0
   27.4350    3.4040   32.0750 N   0  3  0  0  0  0  0  0  0  0  0  0
   27.5850    2.5820   32.9660 O   0  5  0  0  0  0  0  0  0  0  0  0
   28.3640    4.0250   31.5720 O   0  0  0  0  0  0  0  0  0  0  0  0
   25.0140    2.7770   31.9030 C   0  0  0  0  0  0  0  0  0  0  0  0
   23.7140    3.0280   31.4030 C   0  0  0  0  0  0  0  0  0  0  0  0
   25.3730    1.7340   32.7030 O   0  0  0  0  0  0  0  0  0  0  0  0
   24.3830    0.6900   32.9410 C   0  0  0  0  0  0  0  0  0  0  0  0
   25.2340   10.8610   29.9680 H   0  0  0  0  0  0  0  0  0  0  0  0
   24.7420   11.6690   31.5110 H   0  0  0  0  0  0  0  0  0  0  0  0
   24.4020    9.9070   31.2520 H   0  0  0  0  0  0  0  0  0  0  0  0
   23.0880   12.3160   29.7610 H   0  0  0  0  0  0  0  0  0  0  0  0
   22.8340   10.5400   29.3190 H   0  0  0  0  0  0  0  0  0  0  0  0
   19.5750    6.9500   32.5290 H   0  0  0  0  0  0  0  0  0  0  0  0
   17.9830    8.2790   33.7560 H   0  0  0  0  0  0  0  0  0  0  0  0
   18.0720   10.0380   33.8050 H   0  0  0  0  0  0  0  0  0  0  0  0
   22.7410    6.8320   30.4170 H   0  0  0  0  0  0  0  0  0  0  0  0
   21.5250    3.4250   29.9990 H   0  0  0  0  0  0  0  0  0  0  0  0
   22.1960    4.8040   29.0120 H   0  0  0  0  0  0  0  0  0  0  0  0
   25.4900    7.5240   30.2710 H   0  0  0  0  0  0  0  0  0  0  0  0
   25.9640    6.7980   28.6400 H   0  0  0  0  0  0  0  0  0  0  0  0
   24.5010    7.9090   28.7740 H   0  0  0  0  0  0  0  0  0  0  0  0
   26.6710    5.4260   30.4830 H   0  0  0  0  0  0  0  0  0  0  0  0
   22.9030    2.3340   31.6390 H   0  0  0  0  0  0  0  0  0  0  0  0
   24.9770   -0.0450   33.5360 H   0  0  0  0  0  0  0  0  0  0  0  0
   23.5360    1.0930   33.5360 H   0  0  0  0  0  0  0  0  0  0  0  0
   24.0540    0.2480   31.9750 H   0  0  0  0  0  0  0  0  0  0  0  0
  1  2  1  0  0  0  0
  1 30  1  0  0  0  0
  1 31  1  0  0  0  0
  1 32  1  0  0  0  0
  2  3  1  0  0  0  0
  2 33  1  0  0  0  0
  2 34  1  0  0  0  0
  3  4  1  0  0  0  0
  4 10  2  0  0  0  0
  4  5  1  0  0  0  0
  5  6  2  0  0  0  0
  6  7  1  0  0  0  0
  6 13  1  0  0  0  0
  7  8  2  0  0  0  0
  7 35  1  0  0  0  0
  8  9  1  0  0  0  0
  8 10  1  0  0  0  0
  9 36  1  0  0  0  0
  9 37  1  0  0  0  0
 10 11  1  0  0  0  0
 11 12  3  0  0  0  0
 13 14  1  0  0  0  0
 13 38  1  0  0  0  0
 14 15  2  0  0  0  0
 14 16  1  0  0  0  0
 16 17  1  0  0  0  0
 16 39  1  0  0  0  0
 16 40  1  0  0  0  0
 17 27  2  0  0  0  0
 17 18  1  0  0  0  0
 18 19  1  0  0  0  0
 18 21  2  0  0  0  0
 19 20  1  0  0  0  0
 20 41  1  0  0  0  0
 20 42  1  0  0  0  0
 20 43  1  0  0  0  0
 21 22  1  0  0  0  0
 21 44  1  0  0  0  0
 22 23  1  0  0  0  0
 22 26  2  0  0  0  0
 23 24  1  0  0  0  0
 23 25  2  0  0  0  0
 26 27  1  0  0  0  0
 26 28  1  0  0  0  0
 27 45  1  0  0  0  0
 28 29  1  0  0  0  0
 29 46  1  0  0  0  0
 29 47  1  0  0  0  0
 29 48  1  0  0  0  0
M  CHG  2  23   1  24  -1
M  END
$$$$
