18659-1
 OpenBabel02232411163D
Structure written by MMmdl.
 50 51  0  0  0  0  0  0  0  0999 V2000
   23.2140   14.2450   32.1580 C   0  0  0  0  0  0  0  0  0  0  0  0
   24.2660   13.5570   31.4350 O   0  0  0  0  0  0  0  0  0  0  0  0
   23.7900   12.8640   30.2680 C   0  0  0  0  0  0  0  0  0  0  0  0
   23.3820   11.4120   30.5510 C   0  0  0  0  0  0  0  0  0  0  0  0
   22.0910   11.4830   31.2660 O   0  0  0  0  0  0  0  0  0  0  0  0
   21.4890   10.3160   31.6090 C   0  0  0  0  0  0  0  0  0  0  0  0
   21.9900    9.1390   31.1680 N   0  0  0  0  0  0  0  0  0  0  0  0
   21.2690    7.9860   31.4620 C   0  0  0  0  0  0  0  0  0  0  0  0
   20.1230    8.0010   32.2520 C   0  0  0  0  0  0  0  0  0  0  0  0
   19.6210    9.2370   32.7340 C   0  0  0  0  0  0  0  0  0  0  0  0
   18.4880    9.2510   33.5070 N   0  0  0  0  0  0  0  0  0  0  0  0
   20.3020   10.4500   32.3900 C   0  0  0  0  0  0  0  0  0  0  0  0
   19.8480   11.7390   32.7380 C   0  0  0  0  0  0  0  0  0  0  0  0
   19.5130   12.8230   32.9820 N   0  0  0  0  0  0  0  0  0  0  0  0
   21.8140    6.8360   30.8540 N   0  0  0  0  0  0  0  0  0  0  0  0
   21.2260    5.5460   30.7910 C   0  0  0  0  0  0  0  0  0  0  0  0
   20.1820    5.2660   31.3410 O   0  0  0  0  0  0  0  0  0  0  0  0
   22.0000    4.5730   29.9120 C   0  0  0  0  0  0  0  0  0  0  0  0
   23.3550    4.2460   30.4680 C   0  0  0  0  0  0  0  0  0  0  0  0
   24.4750    5.0680   30.1520 C   0  0  0  0  0  0  0  0  0  0  0  0
   24.1460    6.1300   29.3140 O   0  0  0  0  0  0  0  0  0  0  0  0
   25.1350    7.1830   29.1620 C   0  0  0  0  0  0  0  0  0  0  0  0
   25.7480    4.7900   30.6360 C   0  0  0  0  0  0  0  0  0  0  0  0
   25.9400    3.6890   31.4840 C   0  0  0  0  0  0  0  0  0  0  0  0
   24.8480    2.8860   31.8080 C   0  0  0  0  0  0  0  0  0  0  0  0
   23.5550    3.1430   31.2860 C   0  0  0  0  0  0  0  0  0  0  0  0
   24.8650    1.7840   32.6370 O   0  0  0  0  0  0  0  0  0  0  0  0
   26.1300    1.4250   33.2500 C   0  0  0  0  0  0  0  0  0  0  0  0
   22.8460   15.0880   31.5340 H   0  0  0  0  0  0  0  0  0  0  0  0
   22.4040   13.5220   32.3970 H   0  0  0  0  0  0  0  0  0  0  0  0
   23.7420   14.5960   33.0680 H   0  0  0  0  0  0  0  0  0  0  0  0
   24.6960   12.8500   29.6080 H   0  0  0  0  0  0  0  0  0  0  0  0
   22.9590   13.4230   29.7820 H   0  0  0  0  0  0  0  0  0  0  0  0
   23.2220   10.8640   29.5920 H   0  0  0  0  0  0  0  0  0  0  0  0
   24.0950   10.8880   31.2180 H   0  0  0  0  0  0  0  0  0  0  0  0
   19.5870    7.0780   32.4880 H   0  0  0  0  0  0  0  0  0  0  0  0
   17.9980    8.3700   33.7550 H   0  0  0  0  0  0  0  0  0  0  0  0
   18.0640   10.1270   33.8110 H   0  0  0  0  0  0  0  0  0  0  0  0
   22.7170    6.9850   30.3380 H   0  0  0  0  0  0  0  0  0  0  0  0
   21.4000    3.6340   29.7990 H   0  0  0  0  0  0  0  0  0  0  0  0
   22.1230    5.0390   28.8940 H   0  0  0  0  0  0  0  0  0  0  0  0
   25.9770    6.8100   28.5430 H   0  0  0  0  0  0  0  0  0  0  0  0
   25.4780    7.5410   30.1570 H   0  0  0  0  0  0  0  0  0  0  0  0
   24.5500    7.9680   28.6310 H   0  0  0  0  0  0  0  0  0  0  0  0
   26.6110    5.4060   30.3740 H   0  0  0  0  0  0  0  0  0  0  0  0
   26.9450    3.4910   31.8620 H   0  0  0  0  0  0  0  0  0  0  0  0
   22.7390    2.4620   31.5410 H   0  0  0  0  0  0  0  0  0  0  0  0
   25.8440    0.5320   33.8550 H   0  0  0  0  0  0  0  0  0  0  0  0
   26.4920    2.2510   33.9000 H   0  0  0  0  0  0  0  0  0  0  0  0
   26.8750    1.1570   32.4690 H   0  0  0  0  0  0  0  0  0  0  0  0
  1  2  1  0  0  0  0
  1 29  1  0  0  0  0
  1 30  1  0  0  0  0
  1 31  1  0  0  0  0
  2  3  1  0  0  0  0
  3  4  1  0  0  0  0
  3 32  1  0  0  0  0
  3 33  1  0  0  0  0
  4  5  1  0  0  0  0
  4 34  1  0  0  0  0
  4 35  1  0  0  0  0
  5  6  1  0  0  0  0
  6 12  2  0  0  0  0
  6  7  1  0  0  0  0
  7  8  2  0  0  0  0
  8  9  1  0  0  0  0
  8 15  1  0  0  0  0
  9 10  2  0  0  0  0
  9 36  1  0  0  0  0
 10 11  1  0  0  0  0
 10 12  1  0  0  0  0
 11 37  1  0  0  0  0
 11 38  1  0  0  0  0
 12 13  1  0  0  0  0
 13 14  3  0  0  0  0
 15 16  1  0  0  0  0
 15 39  1  0  0  0  0
 16 17  2  0  0  0  0
 16 18  1  0  0  0  0
 18 19  1  0  0  0  0
 18 40  1  0  0  0  0
 18 41  1  0  0  0  0
 19 26  2  0  0  0  0
 19 20  1  0  0  0  0
 20 21  1  0  0  0  0
 20 23  2  0  0  0  0
 21 22  1  0  0  0  0
 22 42  1  0  0  0  0
 22 43  1  0  0  0  0
 22 44  1  0  0  0  0
 23 24  1  0  0  0  0
 23 45  1  0  0  0  0
 24 25  2  0  0  0  0
 24 46  1  0  0  0  0
 25 26  1  0  0  0  0
 25 27  1  0  0  0  0
 26 47  1  0  0  0  0
 27 28  1  0  0  0  0
 28 48  1  0  0  0  0
 28 49  1  0  0  0  0
 28 50  1  0  0  0  0
M  END
$$$$
