p38a_2o
 OpenBabel02232411163D
Structure written by MMmdl.
 55 58  0  0  0  0  0  0  0  0999 V2000
   36.3230   35.9530   15.9120 C   0  0  0  0  0  0  0  0  0  0  0  0
   34.5710   34.9960   21.5020 C   0  0  0  0  0  0  0  0  0  0  0  0
   35.6470   35.5080   17.0450 C   0  0  0  0  0  0  0  0  0  0  0  0
   34.1140   39.1000   24.0300 C   0  0  0  0  0  0  0  0  0  0  0  0
   34.7720   37.8660   21.6490 C   0  0  0  0  0  0  0  0  0  0  0  0
   35.1780   37.1920   20.4440 C   0  0  0  0  0  0  0  0  0  0  0  0
   37.6140   36.4580   16.1130 C   0  0  0  0  0  0  0  0  0  0  0  0
   38.2410   36.4940   17.3620 C   0  0  0  0  0  0  0  0  0  0  0  0
   37.5290   36.0720   18.4900 C   0  0  0  0  0  0  0  0  0  0  0  0
   34.3710   37.1100   22.7900 C   0  0  0  0  0  0  0  0  0  0  0  0
   34.7640   39.2800   21.7840 C   0  0  0  0  0  0  0  0  0  0  0  0
   35.1140   35.8420   20.4040 C   0  0  0  0  0  0  0  0  0  0  0  0
   36.2300   35.5810   18.3270 C   0  0  0  0  0  0  0  0  0  0  0  0
   34.4340   34.9830   16.9420 F   0  0  0  0  0  0  0  0  0  0  0  0
   35.4820   34.9980   19.3580 O   0  0  0  0  0  0  0  0  0  0  0  0
   34.4490   39.9110   22.9260 N   0  0  0  0  0  0  0  0  0  0  0  0
   34.3780   33.8030   21.4350 O   0  0  0  0  0  0  0  0  0  0  0  0
   34.2880   35.7060   22.7270 N   0  0  0  0  0  0  0  0  0  0  0  0
   34.0590   37.7190   23.9770 N   0  0  0  0  0  0  0  0  0  0  0  0
   33.8130   39.7150   25.2190 N   0  0  0  0  0  0  0  0  0  0  0  0
   35.8630   35.9360   14.9210 H   0  0  0  0  0  0  0  0  0  0  0  0
   35.5380   37.8030   19.6110 H   0  0  0  0  0  0  0  0  0  0  0  0
   39.2620   36.8740   17.4630 H   0  0  0  0  0  0  0  0  0  0  0  0
   37.9830   36.1520   19.4800 H   0  0  0  0  0  0  0  0  0  0  0  0
   35.0220   39.9140   20.9180 H   0  0  0  0  0  0  0  0  0  0  0  0
   33.8360   40.7480   25.2930 H   0  0  0  0  0  0  0  0  0  0  0  0
   38.2590   36.9610   15.0630 F   0  0  0  0  0  0  0  0  0  0  0  0
   33.4720   40.7330   28.2730 C   0  0  0  0  0  0  0  0  0  0  0  0
   32.5980   39.8380   27.3850 C   0  0  0  0  0  0  0  0  0  0  0  0
   33.4060   38.9330   26.4330 C   0  0  0  0  0  0  0  0  0  0  0  0
   34.6300   38.3150   27.1410 C   0  0  0  0  0  0  0  0  0  0  0  0
   35.4080   39.3470   27.9590 C   0  0  0  0  0  0  0  0  0  0  0  0
   34.5430   40.0090   28.9130 O   0  0  0  0  0  0  0  0  0  0  0  0
   32.8880   41.1200   29.1400 H   0  0  0  0  0  0  0  0  0  0  0  0
   33.9140   41.5630   27.6780 H   0  0  0  0  0  0  0  0  0  0  0  0
   31.9080   40.4850   26.7910 H   0  0  0  0  0  0  0  0  0  0  0  0
   31.9700   39.1700   28.0260 H   0  0  0  0  0  0  0  0  0  0  0  0
   32.7290   38.0970   26.0880 H   0  0  0  0  0  0  0  0  0  0  0  0
   34.2530   37.5010   27.8120 H   0  0  0  0  0  0  0  0  0  0  0  0
   35.3060   37.8430   26.3870 H   0  0  0  0  0  0  0  0  0  0  0  0
   36.1580   38.8610   28.6230 H   0  0  0  0  0  0  0  0  0  0  0  0
   35.8670   40.1160   27.2980 H   0  0  0  0  0  0  0  0  0  0  0  0
   33.8610   34.9330   23.9500 C   0  0  0  0  0  0  0  0  0  0  0  0
   34.1740   33.8650   23.7890 H   0  0  0  0  0  0  0  0  0  0  0  0
   34.4160   35.3640   24.8340 H   0  0  0  0  0  0  0  0  0  0  0  0
   32.3540   35.0460   24.1900 C   0  0  0  0  0  0  0  0  0  0  0  0
   32.1390   36.0650   24.6340 H   0  0  0  0  0  0  0  0  0  0  0  0
   31.7970   35.0360   23.2150 H   0  0  0  0  0  0  0  0  0  0  0  0
   31.6750   33.8100   25.2570 S   0  0  0  0  0  0  0  0  0  0  0  0
   32.5560   33.5110   26.4050 O   0  0  0  0  0  0  0  0  0  0  0  0
   31.4250   32.5790   24.4670 O   0  0  0  0  0  0  0  0  0  0  0  0
   30.1770   34.5000   25.7920 C   0  0  0  0  0  0  0  0  0  0  0  0
   29.5550   34.8910   24.9460 H   0  0  0  0  0  0  0  0  0  0  0  0
   29.5430   33.7770   26.3640 H   0  0  0  0  0  0  0  0  0  0  0  0
   30.3270   35.3750   26.4850 H   0  0  0  0  0  0  0  0  0  0  0  0
  1  3  2  0  0  0  0
  1  7  1  0  0  0  0
  1 21  1  0  0  0  0
  2 12  1  0  0  0  0
  2 17  2  0  0  0  0
  2 18  1  0  0  0  0
  3 13  1  0  0  0  0
  3 14  1  0  0  0  0
  4 16  2  0  0  0  0
  4 19  1  0  0  0  0
  4 20  1  0  0  0  0
  5  6  1  0  0  0  0
  5 10  1  0  0  0  0
  5 11  2  0  0  0  0
  6 12  2  0  0  0  0
  6 22  1  0  0  0  0
  7  8  2  0  0  0  0
  7 27  1  0  0  0  0
  8  9  1  0  0  0  0
  8 23  1  0  0  0  0
  9 13  2  0  0  0  0
  9 24  1  0  0  0  0
 10 18  1  0  0  0  0
 10 19  2  0  0  0  0
 11 16  1  0  0  0  0
 11 25  1  0  0  0  0
 12 15  1  0  0  0  0
 13 15  1  0  0  0  0
 18 43  1  0  0  0  0
 20 26  1  0  0  0  0
 20 30  1  0  0  0  0
 28 29  1  0  0  0  0
 28 33  1  0  0  0  0
 28 34  1  0  0  0  0
 28 35  1  0  0  0  0
 29 30  1  0  0  0  0
 29 36  1  0  0  0  0
 29 37  1  0  0  0  0
 30 31  1  0  0  0  0
 30 38  1  0  0  0  0
 31 32  1  0  0  0  0
 31 39  1  0  0  0  0
 31 40  1  0  0  0  0
 32 33  1  0  0  0  0
 32 41  1  0  0  0  0
 32 42  1  0  0  0  0
 43 44  1  0  0  0  0
 43 45  1  0  0  0  0
 43 46  1  0  0  0  0
 46 47  1  0  0  0  0
 46 48  1  0  0  0  0
 46 49  1  0  0  0  0
 49 50  2  0  0  0  0
 49 51  2  0  0  0  0
 49 52  1  0  0  0  0
 52 53  1  0  0  0  0
 52 54  1  0  0  0  0
 52 55  1  0  0  0  0
M  END
$$$$
