26.pdb
 OpenBabel02232411163D

 43 46  0  0  0  0  0  0  0  0999 V2000
    3.8090  -50.3340    6.6880 O   0  5  0  0  0  0  0  0  0  0  0  0
    3.1030  -49.3290    6.8560 C   0  0  0  0  0  0  0  0  0  0  0  0
    3.4320  -48.2030    7.2360 O   0  0  0  0  0  0  0  0  0  0  0  0
    1.5970  -49.5720    6.5530 C   0  0  0  0  0  0  0  0  0  0  0  0
    1.1980  -50.8360    7.0400 O   0  0  0  0  0  0  0  0  0  0  0  0
   -0.1490  -50.9740    6.6960 C   0  0  0  0  0  0  0  0  0  0  0  0
   -0.9810  -52.0360    7.0350 C   0  0  0  0  0  0  0  0  0  0  0  0
   -0.6490  -52.8980    7.6140 H   0  0  0  0  0  0  0  0  0  0  0  0
   -2.3060  -51.9430    6.5980 C   0  0  0  0  0  0  0  0  0  0  0  0
   -3.0180  -52.7300    6.8550 H   0  0  0  0  0  0  0  0  0  0  0  0
   -2.7460  -50.8500    5.8310 C   0  0  0  0  0  0  0  0  0  0  0  0
   -3.7890  -50.8100    5.5120 H   0  0  0  0  0  0  0  0  0  0  0  0
   -1.8870  -49.8070    5.4740 C   0  0  0  0  0  0  0  0  0  0  0  0
   -2.2550  -49.0090    4.8310 H   0  0  0  0  0  0  0  0  0  0  0  0
   -0.5730  -49.8300    5.9480 C   0  0  0  0  0  0  0  0  0  0  0  0
    0.5690  -48.9270    5.9120 C   0  0  0  0  0  0  0  0  0  0  0  0
    0.5430  -47.5520    5.3480 C   0  0  0  0  0  0  0  0  0  0  0  0
    1.5830  -47.1930    5.1440 H   0  0  0  0  0  0  0  0  0  0  0  0
   -0.0240  -47.5610    4.3850 H   0  0  0  0  0  0  0  0  0  0  0  0
   -0.1400  -46.5360    6.2860 C   0  0  0  0  0  0  0  0  0  0  0  0
    0.2300  -46.6560    7.3310 H   0  0  0  0  0  0  0  0  0  0  0  0
    0.1010  -45.4980    5.9590 H   0  0  0  0  0  0  0  0  0  0  0  0
   -1.6580  -46.7160    6.2720 C   0  0  0  0  0  0  0  0  0  0  0  0
   -2.1060  -46.5920    5.2660 H   0  0  0  0  0  0  0  0  0  0  0  0
   -1.9840  -47.6600    6.7630 H   0  0  0  0  0  0  0  0  0  0  0  0
   -2.1640  -45.6610    7.1650 O   0  0  0  0  0  0  0  0  0  0  0  0
   -3.4670  -45.2730    6.9450 C   0  0  0  0  0  0  0  0  0  0  0  0
   -4.3820  -45.5810    8.0130 C   0  0  0  0  0  0  0  0  0  0  0  0
   -5.6870  -45.0290    7.9550 C   0  0  0  0  0  0  0  0  0  0  0  0
   -6.0760  -44.2580    6.8130 C   0  0  0  0  0  0  0  0  0  0  0  0
   -7.0910  -43.8610    6.7670 H   0  0  0  0  0  0  0  0  0  0  0  0
   -5.1910  -44.0410    5.7860 C   0  0  0  0  0  0  0  0  0  0  0  0
   -5.4920  -43.4680    4.9070 H   0  0  0  0  0  0  0  0  0  0  0  0
   -3.8640  -44.5500    5.8400 C   0  0  0  0  0  0  0  0  0  0  0  0
   -3.1990  -44.3420    5.0090 H   0  0  0  0  0  0  0  0  0  0  0  0
   -6.5870  -45.2870    9.0350 C   0  0  0  0  0  0  0  0  0  0  0  0
   -7.5820  -44.8490    9.0030 H   0  0  0  0  0  0  0  0  0  0  0  0
   -6.2050  -46.0960   10.0770 C   0  0  0  0  0  0  0  0  0  0  0  0
   -6.8920  -46.2840   10.9000 H   0  0  0  0  0  0  0  0  0  0  0  0
   -4.9250  -46.7180   10.0860 C   0  0  0  0  0  0  0  0  0  0  0  0
   -4.6860  -47.4230   10.8790 H   0  0  0  0  0  0  0  0  0  0  0  0
   -4.0230  -46.4500    9.0860 C   0  0  0  0  0  0  0  0  0  0  0  0
   -3.0250  -46.8990    9.0870 H   0  0  0  0  0  0  0  0  0  0  0  0
  1  2  1  0  0  0  0
  2  3  2  0  0  0  0
  4  2  1  0  0  0  0
  4  5  1  0  0  0  0
  6  7  1  0  0  0  0
  6  5  1  0  0  0  0
  7  8  1  0  0  0  0
  9 10  1  0  0  0  0
  9  7  2  0  0  0  0
 11  9  1  0  0  0  0
 12 11  1  0  0  0  0
 13 11  2  0  0  0  0
 13 15  1  0  0  0  0
 14 13  1  0  0  0  0
 15  6  2  0  0  0  0
 16 15  1  0  0  0  0
 16  4  2  0  0  0  0
 17 16  1  0  0  0  0
 17 20  1  0  0  0  0
 18 17  1  0  0  0  0
 19 17  1  0  0  0  0
 20 22  1  0  0  0  0
 20 23  1  0  0  0  0
 21 20  1  0  0  0  0
 23 25  1  0  0  0  0
 23 24  1  0  0  0  0
 26 23  1  0  0  0  0
 26 27  1  0  0  0  0
 27 34  1  0  0  0  0
 28 27  2  0  0  0  0
 28 29  1  0  0  0  0
 29 30  2  0  0  0  0
 30 32  1  0  0  0  0
 30 31  1  0  0  0  0
 32 33  1  0  0  0  0
 34 35  1  0  0  0  0
 34 32  2  0  0  0  0
 36 29  1  0  0  0  0
 36 37  1  0  0  0  0
 38 36  2  0  0  0  0
 39 38  1  0  0  0  0
 40 42  2  0  0  0  0
 40 38  1  0  0  0  0
 41 40  1  0  0  0  0
 42 28  1  0  0  0  0
 43 42  1  0  0  0  0
M  CHG  1   1  -1
M  END
$$$$
