CAT-17h
 OpenBabel02232411143D
Structure written by MMmdl.
 42 45  0  0  1  0  0  0  0  0999 V2000
   12.0190   -2.4890    0.8130 C   0  0  0  0  0  0  0  0  0  0  0  0
   13.4140   -2.3210    0.3570 N   0  0  0  0  0  0  0  0  0  0  0  0
   14.4620   -2.1430    1.2490 C   0  0  0  0  0  0  0  0  0  0  0  0
   14.4090   -2.2940    2.6000 N   0  0  0  0  0  0  0  0  0  0  0  0
   15.6540   -1.8420    0.5530 N   0  3  0  0  0  0  0  0  0  0  0  0
   15.4730   -2.1660   -0.9190 C   0  0  1  0  0  0  0  0  0  0  0  0
   15.7990   -1.0170   -1.8600 C   0  0  0  0  0  0  0  0  0  0  0  0
   16.1460   -1.2800   -3.1930 C   0  0  0  0  0  0  0  0  0  0  0  0
   16.3330   -0.2130   -4.0750 C   0  0  0  0  0  0  0  0  0  0  0  0
   16.1660    1.1070   -3.6490 C   0  0  0  0  0  0  0  0  0  0  0  0
   15.8310    1.3820   -2.3120 C   0  0  0  0  0  0  0  0  0  0  0  0
   15.5650    2.7480   -1.8240 C   0  0  0  0  0  0  0  0  0  0  0  0
   15.0910    3.7640   -2.6870 C   0  0  0  0  0  0  0  0  0  0  0  0
   14.7240    4.9920   -2.2420 N   0  0  0  0  0  0  0  0  0  0  0  0
   14.7750    5.2520   -0.9140 C   0  0  0  0  0  0  0  0  0  0  0  0
   15.2330    4.2890    0.0050 C   0  0  0  0  0  0  0  0  0  0  0  0
   15.1780    4.5860    1.6900 Cl  0  0  0  0  0  0  0  0  0  0  0  0
   15.6780    3.0520   -0.4550 C   0  0  0  0  0  0  0  0  0  0  0  0
   15.6730    0.3020   -1.4240 C   0  0  0  0  0  0  0  0  0  0  0  0
   16.3460   -3.3710   -1.1720 C   0  0  0  0  0  0  0  0  0  0  0  0
   15.9360   -4.7740   -0.7370 C   0  0  0  0  0  0  0  0  0  0  0  0
   16.0150   -4.4220   -2.2050 C   0  0  0  0  0  0  0  0  0  0  0  0
   13.9330   -2.4100   -1.0290 C   0  0  0  0  0  0  0  0  0  0  0  0
   13.2040   -2.5750   -1.9530 O   0  0  0  0  0  0  0  0  0  0  0  0
   11.3500   -2.6560   -0.0730 H   0  0  0  0  0  0  0  0  0  0  0  0
   11.9480   -3.3780    1.5000 H   0  0  0  0  0  0  0  0  0  0  0  0
   11.6890   -1.5670    1.3630 H   0  0  0  0  0  0  0  0  0  0  0  0
   13.5720   -2.0250    3.1680 H   0  0  0  0  0  0  0  0  0  0  0  0
   16.5280   -2.2520    0.9920 H   0  0  0  0  0  0  0  0  0  0  0  0
   16.2740   -2.3030   -3.5510 H   0  0  0  0  0  0  0  0  0  0  0  0
   16.6140   -0.4210   -5.1140 H   0  0  0  0  0  0  0  0  0  0  0  0
   16.3030    1.9120   -4.3750 H   0  0  0  0  0  0  0  0  0  0  0  0
   14.9810    3.5870   -3.7700 H   0  0  0  0  0  0  0  0  0  0  0  0
   14.4420    6.2450   -0.5840 H   0  0  0  0  0  0  0  0  0  0  0  0
   16.0890    2.3210    0.2460 H   0  0  0  0  0  0  0  0  0  0  0  0
   15.4610    0.4670   -0.3740 H   0  0  0  0  0  0  0  0  0  0  0  0
   17.4090   -3.0950   -1.0340 H   0  0  0  0  0  0  0  0  0  0  0  0
   16.7290   -5.3960   -0.3020 H   0  0  0  0  0  0  0  0  0  0  0  0
   14.9610   -4.9340   -0.2690 H   0  0  0  0  0  0  0  0  0  0  0  0
   15.0850   -4.3530   -2.7840 H   0  0  0  0  0  0  0  0  0  0  0  0
   16.8640   -4.8090   -2.7800 H   0  0  0  0  0  0  0  0  0  0  0  0
   15.3160   -2.2060    3.1440 H   0  0  0  0  0  0  0  0  0  0  0  0
  1  2  1  0  0  0  0
  1 25  1  0  0  0  0
  1 26  1  0  0  0  0
  1 27  1  0  0  0  0
  2  3  1  0  0  0  0
  2 23  1  0  0  0  0
  3  4  1  0  0  0  0
  3  5  2  0  0  0  0
  4 28  1  0  0  0  0
  4 42  1  0  0  0  0
  5  6  1  0  0  0  0
  5 29  1  0  0  0  0
  6  7  1  6  0  0  0
  6 20  1  0  0  0  0
  6 23  1  0  0  0  0
  7  8  2  0  0  0  0
  7 19  1  0  0  0  0
  8  9  1  0  0  0  0
  8 30  1  0  0  0  0
  9 10  2  0  0  0  0
  9 31  1  0  0  0  0
 10 11  1  0  0  0  0
 10 32  1  0  0  0  0
 11 12  1  0  0  0  0
 11 19  2  0  0  0  0
 12 13  2  0  0  0  0
 12 18  1  0  0  0  0
 13 14  1  0  0  0  0
 13 33  1  0  0  0  0
 14 15  2  0  0  0  0
 15 16  1  0  0  0  0
 15 34  1  0  0  0  0
 16 17  1  0  0  0  0
 16 18  2  0  0  0  0
 18 35  1  0  0  0  0
 19 36  1  0  0  0  0
 20 21  1  0  0  0  0
 20 22  1  0  0  0  0
 20 37  1  0  0  0  0
 21 22  1  0  0  0  0
 21 38  1  0  0  0  0
 21 39  1  0  0  0  0
 22 40  1  0  0  0  0
 22 41  1  0  0  0  0
 23 24  2  0  0  0  0
M  CHG  1   5   1
M  END
$$$$
