p38a_3flw
 OpenBabel02232411163D
Structure written by MMmdl.
 49 51  0  0  0  0  0  0  0  0999 V2000
   38.3410   36.5900   17.0970 C   0  0  0  0  0  0  0  0  0  0  0  0
   37.6880   36.7460   15.8660 C   0  0  0  0  0  0  0  0  0  0  0  0
   32.6320   39.7650   27.1560 C   0  0  0  0  0  0  0  0  0  0  0  0
   34.0040   40.0660   27.7620 C   0  0  0  0  0  0  0  0  0  0  0  0
   31.2720   38.1820   25.7030 C   0  0  0  0  0  0  0  0  0  0  0  0
   33.4180   34.8790   23.3410 C   0  0  0  0  0  0  0  0  0  0  0  0
   38.0990   35.9870   19.3600 F   0  0  0  0  0  0  0  0  0  0  0  0
   37.5670   36.1140   18.1510 C   0  0  0  0  0  0  0  0  0  0  0  0
   38.3740   37.2650   14.8510 F   0  0  0  0  0  0  0  0  0  0  0  0
   36.3450   36.4250   15.6600 C   0  0  0  0  0  0  0  0  0  0  0  0
   35.5930   35.9290   16.7310 C   0  0  0  0  0  0  0  0  0  0  0  0
   36.2120   35.7640   17.9720 C   0  0  0  0  0  0  0  0  0  0  0  0
   35.5160   35.1080   18.9940 O   0  0  0  0  0  0  0  0  0  0  0  0
   35.0480   35.9140   20.0300 C   0  0  0  0  0  0  0  0  0  0  0  0
   35.0680   37.2650   20.1050 C   0  0  0  0  0  0  0  0  0  0  0  0
   34.5570   37.8990   21.2890 C   0  0  0  0  0  0  0  0  0  0  0  0
   34.5370   39.3100   21.4690 C   0  0  0  0  0  0  0  0  0  0  0  0
   34.0850   39.9010   22.5850 N   0  0  0  0  0  0  0  0  0  0  0  0
   34.4810   35.0230   21.0770 C   0  0  0  0  0  0  0  0  0  0  0  0
   34.4080   33.8150   21.0030 O   0  0  0  0  0  0  0  0  0  0  0  0
   33.9980   35.7060   22.2450 N   0  0  0  0  0  0  0  0  0  0  0  0
   34.0470   37.1060   22.3600 C   0  0  0  0  0  0  0  0  0  0  0  0
   33.5950   37.6790   23.5200 N   0  0  0  0  0  0  0  0  0  0  0  0
   33.5930   39.0580   23.6020 C   0  0  0  0  0  0  0  0  0  0  0  0
   33.0230   39.6460   24.7090 N   0  0  0  0  0  0  0  0  0  0  0  0
   32.6550   38.8410   25.9240 C   0  0  0  0  0  0  0  0  0  0  0  0
   31.0970   36.9260   26.5650 C   0  0  0  0  0  0  0  0  0  0  0  0
   30.7210   37.2840   27.9140 O   0  0  0  0  0  0  0  0  0  0  0  0
   34.8730   40.7860   26.8670 O   0  0  0  0  0  0  0  0  0  0  0  0
   39.3900   36.8660   17.2320 H   0  0  0  0  0  0  0  0  0  0  0  0
   32.0060   39.2570   27.9410 H   0  0  0  0  0  0  0  0  0  0  0  0
   32.1320   40.7260   26.8950 H   0  0  0  0  0  0  0  0  0  0  0  0
   33.8760   40.6940   28.6770 H   0  0  0  0  0  0  0  0  0  0  0  0
   34.5800   39.1380   27.9810 H   0  0  0  0  0  0  0  0  0  0  0  0
   30.4620   38.9110   25.9350 H   0  0  0  0  0  0  0  0  0  0  0  0
   31.1660   37.8800   24.6320 H   0  0  0  0  0  0  0  0  0  0  0  0
   32.9290   35.5250   24.1220 H   0  0  0  0  0  0  0  0  0  0  0  0
   32.6360   34.1910   22.9240 H   0  0  0  0  0  0  0  0  0  0  0  0
   34.2250   34.2780   23.8340 H   0  0  0  0  0  0  0  0  0  0  0  0
   35.8690   36.5710   14.6880 H   0  0  0  0  0  0  0  0  0  0  0  0
   34.5340   35.6920   16.5900 H   0  0  0  0  0  0  0  0  0  0  0  0
   35.4590   37.8990   19.3070 H   0  0  0  0  0  0  0  0  0  0  0  0
   34.9010   39.9690   20.6630 H   0  0  0  0  0  0  0  0  0  0  0  0
   33.1410   40.6650   24.8610 H   0  0  0  0  0  0  0  0  0  0  0  0
   33.4280   38.0360   26.0750 H   0  0  0  0  0  0  0  0  0  0  0  0
   30.3120   36.2640   26.1360 H   0  0  0  0  0  0  0  0  0  0  0  0
   32.0560   36.3730   26.6980 H   0  0  0  0  0  0  0  0  0  0  0  0
   29.7210   37.1410   28.0030 H   0  0  0  0  0  0  0  0  0  0  0  0
   34.3230   41.4720   26.3730 H   0  0  0  0  0  0  0  0  0  0  0  0
  1  2  2  0  0  0  0
  1  8  1  0  0  0  0
  1 30  1  0  0  0  0
  2  9  1  0  0  0  0
  2 10  1  0  0  0  0
  3  4  1  0  0  0  0
  3 26  1  0  0  0  0
  3 31  1  0  0  0  0
  3 32  1  0  0  0  0
  4 29  1  0  0  0  0
  4 33  1  0  0  0  0
  4 34  1  0  0  0  0
  5 26  1  0  0  0  0
  5 27  1  0  0  0  0
  5 35  1  0  0  0  0
  5 36  1  0  0  0  0
  6 21  1  0  0  0  0
  6 37  1  0  0  0  0
  6 38  1  0  0  0  0
  6 39  1  0  0  0  0
  7  8  1  0  0  0  0
  8 12  2  0  0  0  0
 10 11  2  0  0  0  0
 10 40  1  0  0  0  0
 11 12  1  0  0  0  0
 11 41  1  0  0  0  0
 12 13  1  0  0  0  0
 13 14  1  0  0  0  0
 14 15  2  0  0  0  0
 14 19  1  0  0  0  0
 15 16  1  0  0  0  0
 15 42  1  0  0  0  0
 16 17  2  0  0  0  0
 16 22  1  0  0  0  0
 17 18  1  0  0  0  0
 17 43  1  0  0  0  0
 18 24  2  0  0  0  0
 19 20  2  0  0  0  0
 19 21  1  0  0  0  0
 21 22  1  0  0  0  0
 22 23  2  0  0  0  0
 23 24  1  0  0  0  0
 24 25  1  0  0  0  0
 25 26  1  0  0  0  0
 25 44  1  0  0  0  0
 26 45  1  0  0  0  0
 27 28  1  0  0  0  0
 27 46  1  0  0  0  0
 27 47  1  0  0  0  0
 28 48  1  0  0  0  0
 29 49  1  0  0  0  0
M  END
$$$$
