CAT-17f
 OpenBabel02232411143D
Structure written by MMmdl.
 43 46  0  0  1  0  0  0  0  0999 V2000
   11.6000   -2.4640    1.3040 C   0  0  0  0  0  0  0  0  0  0  0  0
   12.9430   -2.3490    0.6970 N   0  0  0  0  0  0  0  0  0  0  0  0
   14.1350   -2.3510    1.4130 C   0  0  0  0  0  0  0  0  0  0  0  0
   14.2900   -2.4800    2.7610 N   0  0  0  0  0  0  0  0  0  0  0  0
   15.2230   -2.2460    0.5340 N   0  3  0  0  0  0  0  0  0  0  0  0
   14.7730   -2.5610   -0.8730 C   0  0  1  0  0  0  0  0  0  0  0  0
   15.3490   -1.5290   -1.8170 C   0  0  0  0  0  0  0  0  0  0  0  0
   16.3050   -1.8900   -2.7750 C   0  0  0  0  0  0  0  0  0  0  0  0
   16.7560   -0.9380   -3.6950 C   0  0  0  0  0  0  0  0  0  0  0  0
   16.2700    0.3710   -3.6560 C   0  0  0  0  0  0  0  0  0  0  0  0
   15.3560    0.7500   -2.6580 C   0  0  0  0  0  0  0  0  0  0  0  0
   14.8610    2.1390   -2.5760 C   0  0  0  0  0  0  0  0  0  0  0  0
   15.0970    2.9130   -1.4180 C   0  0  0  0  0  0  0  0  0  0  0  0
   14.6220    4.1770   -1.2770 N   0  0  0  0  0  0  0  0  0  0  0  0
   13.8810    4.7090   -2.2810 C   0  0  0  0  0  0  0  0  0  0  0  0
   13.6310    4.0070   -3.4850 C   0  0  0  0  0  0  0  0  0  0  0  0
   12.8640    4.6160   -4.5260 C   0  0  0  0  0  0  0  0  0  0  0  0
   12.2340    5.1100   -5.3610 N   0  0  0  0  0  0  0  0  0  0  0  0
   14.1340    2.7050   -3.6330 C   0  0  0  0  0  0  0  0  0  0  0  0
   14.9000   -0.2020   -1.7360 C   0  0  0  0  0  0  0  0  0  0  0  0
   15.0140   -4.0120   -1.2670 C   0  0  0  0  0  0  0  0  0  0  0  0
   16.2430   -4.7630   -0.7880 C   0  0  0  0  0  0  0  0  0  0  0  0
   14.8820   -5.1340   -0.2430 C   0  0  0  0  0  0  0  0  0  0  0  0
   13.2180   -2.4200   -0.7570 C   0  0  0  0  0  0  0  0  0  0  0  0
   12.3480   -2.3800   -1.5640 O   0  0  0  0  0  0  0  0  0  0  0  0
   11.6700   -2.6430    2.4080 H   0  0  0  0  0  0  0  0  0  0  0  0
   11.0290   -1.5140    1.1180 H   0  0  0  0  0  0  0  0  0  0  0  0
   11.0590   -3.3340    0.8400 H   0  0  0  0  0  0  0  0  0  0  0  0
   13.5740   -2.1030    3.4320 H   0  0  0  0  0  0  0  0  0  0  0  0
   16.1600   -2.5920    0.8820 H   0  0  0  0  0  0  0  0  0  0  0  0
   16.7010   -2.9070   -2.8030 H   0  0  0  0  0  0  0  0  0  0  0  0
   17.4950   -1.2250   -4.4510 H   0  0  0  0  0  0  0  0  0  0  0  0
   16.6060    1.0990   -4.4020 H   0  0  0  0  0  0  0  0  0  0  0  0
   15.6770    2.4990   -0.5790 H   0  0  0  0  0  0  0  0  0  0  0  0
   13.4640    5.7160   -2.1130 H   0  0  0  0  0  0  0  0  0  0  0  0
   13.9560    2.1310   -4.5500 H   0  0  0  0  0  0  0  0  0  0  0  0
   14.2000    0.0900   -0.9520 H   0  0  0  0  0  0  0  0  0  0  0  0
   14.6620   -4.2170   -2.2950 H   0  0  0  0  0  0  0  0  0  0  0  0
   16.7610   -5.4180   -1.4890 H   0  0  0  0  0  0  0  0  0  0  0  0
   16.9600   -4.2560   -0.1380 H   0  0  0  0  0  0  0  0  0  0  0  0
   14.6500   -4.8900    0.8010 H   0  0  0  0  0  0  0  0  0  0  0  0
   14.4040   -6.0700   -0.5600 H   0  0  0  0  0  0  0  0  0  0  0  0
   15.2720   -2.4030    3.1570 H   0  0  0  0  0  0  0  0  0  0  0  0
  1  2  1  0  0  0  0
  1 26  1  0  0  0  0
  1 27  1  0  0  0  0
  1 28  1  0  0  0  0
  2  3  1  0  0  0  0
  2 24  1  0  0  0  0
  3  4  1  0  0  0  0
  3  5  2  0  0  0  0
  4 29  1  0  0  0  0
  4 43  1  0  0  0  0
  5  6  1  0  0  0  0
  5 30  1  0  0  0  0
  6  7  1  6  0  0  0
  6 21  1  0  0  0  0
  6 24  1  0  0  0  0
  7  8  2  0  0  0  0
  7 20  1  0  0  0  0
  8  9  1  0  0  0  0
  8 31  1  0  0  0  0
  9 10  2  0  0  0  0
  9 32  1  0  0  0  0
 10 11  1  0  0  0  0
 10 33  1  0  0  0  0
 11 12  1  0  0  0  0
 11 20  2  0  0  0  0
 12 13  2  0  0  0  0
 12 19  1  0  0  0  0
 13 14  1  0  0  0  0
 13 34  1  0  0  0  0
 14 15  2  0  0  0  0
 15 16  1  0  0  0  0
 15 35  1  0  0  0  0
 16 17  1  0  0  0  0
 16 19  2  0  0  0  0
 17 18  3  0  0  0  0
 19 36  1  0  0  0  0
 20 37  1  0  0  0  0
 21 22  1  0  0  0  0
 21 23  1  0  0  0  0
 21 38  1  0  0  0  0
 22 23  1  0  0  0  0
 22 39  1  0  0  0  0
 22 40  1  0  0  0  0
 23 41  1  0  0  0  0
 23 42  1  0  0  0  0
 24 25  2  0  0  0  0
M  CHG  1   5   1
M  END
$$$$
