p38a_2bb
 OpenBabel02232411163D
Structure written by MMmdl.
 44 46  0  0  0  0  0  0  0  0999 V2000
   36.3590   36.0060   15.9050 C   0  0  0  0  0  0  0  0  0  0  0  0
   34.3510   34.9920   21.3170 C   0  0  0  0  0  0  0  0  0  0  0  0
   35.7050   35.5490   17.0450 C   0  0  0  0  0  0  0  0  0  0  0  0
   33.5970   39.0480   23.8520 C   0  0  0  0  0  0  0  0  0  0  0  0
   32.0100   39.1060   25.7990 C   0  0  0  0  0  0  0  0  0  0  0  0
   34.6660   37.8440   21.6090 C   0  0  0  0  0  0  0  0  0  0  0  0
   35.2380   37.1840   20.4640 C   0  0  0  0  0  0  0  0  0  0  0  0
   37.6520   36.5130   16.0880 C   0  0  0  0  0  0  0  0  0  0  0  0
   38.3000   36.5410   17.3260 C   0  0  0  0  0  0  0  0  0  0  0  0
   37.6090   36.1080   18.4640 C   0  0  0  0  0  0  0  0  0  0  0  0
   33.9660   37.0900   22.5970 C   0  0  0  0  0  0  0  0  0  0  0  0
   34.7680   39.2440   21.8290 C   0  0  0  0  0  0  0  0  0  0  0  0
   35.1040   35.8430   20.3520 C   0  0  0  0  0  0  0  0  0  0  0  0
   36.3110   35.6120   18.3170 C   0  0  0  0  0  0  0  0  0  0  0  0
   33.0850   34.9470   23.5050 C   0  0  0  0  0  0  0  0  0  0  0  0
   34.4920   35.0210   16.9590 F   0  0  0  0  0  0  0  0  0  0  0  0
   35.5970   35.0030   19.3580 O   0  0  0  0  0  0  0  0  0  0  0  0
   34.2670   39.8550   22.9140 N   0  0  0  0  0  0  0  0  0  0  0  0
   34.1710   33.8000   21.2040 O   0  0  0  0  0  0  0  0  0  0  0  0
   33.8160   35.7010   22.4490 N   0  0  0  0  0  0  0  0  0  0  0  0
   33.4240   37.6880   23.7090 N   0  0  0  0  0  0  0  0  0  0  0  0
   33.1480   39.6590   25.0100 N   0  0  0  0  0  0  0  0  0  0  0  0
   35.8830   35.9920   14.9200 H   0  0  0  0  0  0  0  0  0  0  0  0
   31.8840   38.0050   25.6010 H   0  0  0  0  0  0  0  0  0  0  0  0
   35.7640   37.7980   19.7290 H   0  0  0  0  0  0  0  0  0  0  0  0
   39.3210   36.9210   17.4140 H   0  0  0  0  0  0  0  0  0  0  0  0
   38.0800   36.1770   19.4470 H   0  0  0  0  0  0  0  0  0  0  0  0
   35.2670   39.8810   21.0790 H   0  0  0  0  0  0  0  0  0  0  0  0
   33.6590   34.9860   24.4700 H   0  0  0  0  0  0  0  0  0  0  0  0
   32.0750   35.4090   23.6820 H   0  0  0  0  0  0  0  0  0  0  0  0
   32.9490   33.8780   23.1990 H   0  0  0  0  0  0  0  0  0  0  0  0
   33.2760   40.6860   25.1130 H   0  0  0  0  0  0  0  0  0  0  0  0
   38.2790   37.0230   15.0300 F   0  0  0  0  0  0  0  0  0  0  0  0
   32.1960   39.3720   27.2970 C   0  0  0  0  0  0  0  0  0  0  0  0
   31.0600   39.6200   25.4640 H   0  0  0  0  0  0  0  0  0  0  0  0
   32.3490   40.4750   27.4490 H   0  0  0  0  0  0  0  0  0  0  0  0
   31.2140   39.1090   27.7870 H   0  0  0  0  0  0  0  0  0  0  0  0
   33.5040   36.8830   27.4290 C   0  0  0  0  0  0  0  0  0  0  0  0
   33.4870   38.4750   28.1110 S   0  0  0  0  0  0  0  0  0  0  0  0
   34.7970   39.1300   27.9150 O   0  0  0  0  0  0  0  0  0  0  0  0
   33.1690   38.4020   29.5640 O   0  0  0  0  0  0  0  0  0  0  0  0
   32.4830   36.4120   27.4420 H   0  0  0  0  0  0  0  0  0  0  0  0
   33.8410   36.8710   26.3590 H   0  0  0  0  0  0  0  0  0  0  0  0
   34.1800   36.1810   27.9820 H   0  0  0  0  0  0  0  0  0  0  0  0
  1  3  2  0  0  0  0
  1  8  1  0  0  0  0
  1 23  1  0  0  0  0
  2 13  1  0  0  0  0
  2 19  2  0  0  0  0
  2 20  1  0  0  0  0
  3 14  1  0  0  0  0
  3 16  1  0  0  0  0
  4 18  2  0  0  0  0
  4 21  1  0  0  0  0
  4 22  1  0  0  0  0
  5 22  1  0  0  0  0
  5 24  1  0  0  0  0
  5 34  1  0  0  0  0
  5 35  1  0  0  0  0
  6  7  1  0  0  0  0
  6 11  1  0  0  0  0
  6 12  2  0  0  0  0
  7 13  2  0  0  0  0
  7 25  1  0  0  0  0
  8  9  2  0  0  0  0
  8 33  1  0  0  0  0
  9 10  1  0  0  0  0
  9 26  1  0  0  0  0
 10 14  2  0  0  0  0
 10 27  1  0  0  0  0
 11 20  1  0  0  0  0
 11 21  2  0  0  0  0
 12 18  1  0  0  0  0
 12 28  1  0  0  0  0
 13 17  1  0  0  0  0
 14 17  1  0  0  0  0
 15 20  1  0  0  0  0
 15 29  1  0  0  0  0
 15 30  1  0  0  0  0
 15 31  1  0  0  0  0
 22 32  1  0  0  0  0
 34 36  1  0  0  0  0
 34 37  1  0  0  0  0
 34 39  1  0  0  0  0
 38 39  1  0  0  0  0
 38 42  1  0  0  0  0
 38 43  1  0  0  0  0
 38 44  1  0  0  0  0
 39 40  2  0  0  0  0
 39 41  2  0  0  0  0
M  END
$$$$
