p38a_2bb
 OpenBabel02232411163D
Structure written by MMmdl.
 44 46  0  0  0  0  0  0  0  0999 V2000
   38.2150   36.4780   17.2570 C   0  0  0  0  0  0  0  0  0  0  0  0
   34.6640   35.1710   21.4670 C   0  0  0  0  0  0  0  0  0  0  0  0
   37.4320   36.0670   18.3320 C   0  0  0  0  0  0  0  0  0  0  0  0
   34.3940   39.2710   24.0150 C   0  0  0  0  0  0  0  0  0  0  0  0
   34.0650   39.1950   26.5090 C   0  0  0  0  0  0  0  0  0  0  0  0
   34.7670   38.0410   21.5750 C   0  0  0  0  0  0  0  0  0  0  0  0
   35.0500   37.3750   20.3320 C   0  0  0  0  0  0  0  0  0  0  0  0
   37.5630   36.6070   16.0230 C   0  0  0  0  0  0  0  0  0  0  0  0
   36.2100   36.3180   15.8350 C   0  0  0  0  0  0  0  0  0  0  0  0
   35.4450   35.9040   16.9310 C   0  0  0  0  0  0  0  0  0  0  0  0
   34.5700   37.2840   22.7690 C   0  0  0  0  0  0  0  0  0  0  0  0
   34.6790   39.4530   21.6910 C   0  0  0  0  0  0  0  0  0  0  0  0
   35.0420   36.0220   20.3060 C   0  0  0  0  0  0  0  0  0  0  0  0
   36.0600   35.7720   18.1790 C   0  0  0  0  0  0  0  0  0  0  0  0
   34.3340   35.1100   23.9710 C   0  0  0  0  0  0  0  0  0  0  0  0
   37.9780   35.9480   19.5350 F   0  0  0  0  0  0  0  0  0  0  0  0
   35.3260   35.1930   19.2230 O   0  0  0  0  0  0  0  0  0  0  0  0
   34.4880   40.0760   22.8650 N   0  0  0  0  0  0  0  0  0  0  0  0
   34.4640   33.9770   21.4320 O   0  0  0  0  0  0  0  0  0  0  0  0
   34.5360   35.8830   22.7130 N   0  0  0  0  0  0  0  0  0  0  0  0
   34.3880   37.8910   23.9890 N   0  0  0  0  0  0  0  0  0  0  0  0
   34.3570   39.9230   25.2320 N   0  0  0  0  0  0  0  0  0  0  0  0
   39.2750   36.7260   17.3750 H   0  0  0  0  0  0  0  0  0  0  0  0
   34.6770   38.2500   26.5250 H   0  0  0  0  0  0  0  0  0  0  0  0
   35.2740   37.9870   19.4550 H   0  0  0  0  0  0  0  0  0  0  0  0
   35.7380   36.4270   14.8550 H   0  0  0  0  0  0  0  0  0  0  0  0
   34.3760   35.7010   16.8040 H   0  0  0  0  0  0  0  0  0  0  0  0
   34.7540   40.0880   20.7920 H   0  0  0  0  0  0  0  0  0  0  0  0
   35.1030   35.4120   24.7330 H   0  0  0  0  0  0  0  0  0  0  0  0
   33.3140   35.3230   24.3920 H   0  0  0  0  0  0  0  0  0  0  0  0
   34.4290   34.0110   23.7700 H   0  0  0  0  0  0  0  0  0  0  0  0
   34.1260   40.9370   25.2500 H   0  0  0  0  0  0  0  0  0  0  0  0
   38.2640   37.0640   14.9880 F   0  0  0  0  0  0  0  0  0  0  0  0
   34.4480   40.1050   27.6790 C   0  0  0  0  0  0  0  0  0  0  0  0
   32.9680   38.9480   26.5460 H   0  0  0  0  0  0  0  0  0  0  0  0
   35.5340   40.3890   27.5870 H   0  0  0  0  0  0  0  0  0  0  0  0
   33.8880   41.0810   27.5870 H   0  0  0  0  0  0  0  0  0  0  0  0
   34.3000   40.8150   30.3250 C   0  0  0  0  0  0  0  0  0  0  0  0
   34.1490   39.4310   29.2850 S   0  0  0  0  0  0  0  0  0  0  0  0
   32.7880   38.8520   29.3840 O   0  0  0  0  0  0  0  0  0  0  0  0
   35.1700   38.4160   29.6350 O   0  0  0  0  0  0  0  0  0  0  0  0
   35.2770   41.3460   30.1710 H   0  0  0  0  0  0  0  0  0  0  0  0
   33.5030   41.5810   30.1330 H   0  0  0  0  0  0  0  0  0  0  0  0
   34.2410   40.5530   31.4110 H   0  0  0  0  0  0  0  0  0  0  0  0
  1  3  2  0  0  0  0
  1  8  1  0  0  0  0
  1 23  1  0  0  0  0
  2 13  1  0  0  0  0
  2 19  2  0  0  0  0
  2 20  1  0  0  0  0
  3 14  1  0  0  0  0
  3 16  1  0  0  0  0
  4 18  2  0  0  0  0
  4 21  1  0  0  0  0
  4 22  1  0  0  0  0
  5 22  1  0  0  0  0
  5 24  1  0  0  0  0
  5 34  1  0  0  0  0
  5 35  1  0  0  0  0
  6  7  1  0  0  0  0
  6 11  1  0  0  0  0
  6 12  2  0  0  0  0
  7 13  2  0  0  0  0
  7 25  1  0  0  0  0
  8  9  2  0  0  0  0
  8 33  1  0  0  0  0
  9 10  1  0  0  0  0
  9 26  1  0  0  0  0
 10 14  2  0  0  0  0
 10 27  1  0  0  0  0
 11 20  1  0  0  0  0
 11 21  2  0  0  0  0
 12 18  1  0  0  0  0
 12 28  1  0  0  0  0
 13 17  1  0  0  0  0
 14 17  1  0  0  0  0
 15 20  1  0  0  0  0
 15 29  1  0  0  0  0
 15 30  1  0  0  0  0
 15 31  1  0  0  0  0
 22 32  1  0  0  0  0
 34 36  1  0  0  0  0
 34 37  1  0  0  0  0
 34 39  1  0  0  0  0
 38 39  1  0  0  0  0
 38 42  1  0  0  0  0
 38 43  1  0  0  0  0
 38 44  1  0  0  0  0
 39 40  2  0  0  0  0
 39 41  2  0  0  0  0
M  END
$$$$
