18658-1
 OpenBabel02232411163D
Structure written by MMmdl.
 47 48  0  0  0  0  0  0  0  0999 V2000
   22.1780   13.0110   28.5120 O   0  0  0  0  0  0  0  0  0  0  0  0
   23.1480   12.7260   29.5310 C   0  0  0  0  0  0  0  0  0  0  0  0
   23.0470   11.2860   30.0520 C   0  0  0  0  0  0  0  0  0  0  0  0
   21.9910   11.3470   31.0800 O   0  0  0  0  0  0  0  0  0  0  0  0
   21.4420   10.1820   31.5060 C   0  0  0  0  0  0  0  0  0  0  0  0
   21.9320    9.0030   31.0610 N   0  0  0  0  0  0  0  0  0  0  0  0
   21.2640    7.8470   31.4470 C   0  0  0  0  0  0  0  0  0  0  0  0
   20.1480    7.8690   32.2780 C   0  0  0  0  0  0  0  0  0  0  0  0
   19.6510    9.1130   32.7500 C   0  0  0  0  0  0  0  0  0  0  0  0
   18.5250    9.1390   33.5330 N   0  0  0  0  0  0  0  0  0  0  0  0
   20.3160   10.3230   32.3700 C   0  0  0  0  0  0  0  0  0  0  0  0
   19.8930   11.6180   32.7400 C   0  0  0  0  0  0  0  0  0  0  0  0
   19.5900   12.7080   32.9930 N   0  0  0  0  0  0  0  0  0  0  0  0
   21.8340    6.6860   30.8800 N   0  0  0  0  0  0  0  0  0  0  0  0
   21.2670    5.3880   30.8540 C   0  0  0  0  0  0  0  0  0  0  0  0
   20.2150    5.1160   31.3930 O   0  0  0  0  0  0  0  0  0  0  0  0
   22.0720    4.3960   30.0240 C   0  0  0  0  0  0  0  0  0  0  0  0
   23.4080    4.0840   30.6310 C   0  0  0  0  0  0  0  0  0  0  0  0
   24.5340    4.9150   30.3570 C   0  0  0  0  0  0  0  0  0  0  0  0
   24.2330    5.9650   29.4950 O   0  0  0  0  0  0  0  0  0  0  0  0
   25.2360    7.0010   29.3300 C   0  0  0  0  0  0  0  0  0  0  0  0
   25.7880    4.6490   30.8950 C   0  0  0  0  0  0  0  0  0  0  0  0
   25.9580    3.5450   31.7440 C   0  0  0  0  0  0  0  0  0  0  0  0
   24.8620    2.7280   32.0180 C   0  0  0  0  0  0  0  0  0  0  0  0
   23.5870    2.9800   31.4520 C   0  0  0  0  0  0  0  0  0  0  0  0
   24.8600    1.6160   32.8340 O   0  0  0  0  0  0  0  0  0  0  0  0
   26.1130    1.2450   33.4640 C   0  0  0  0  0  0  0  0  0  0  0  0
   22.4210   12.4680   27.6890 H   0  0  0  0  0  0  0  0  0  0  0  0
   24.1770   12.8940   29.1230 H   0  0  0  0  0  0  0  0  0  0  0  0
   22.9080   13.4660   30.3330 H   0  0  0  0  0  0  0  0  0  0  0  0
   22.7590   10.5690   29.2510 H   0  0  0  0  0  0  0  0  0  0  0  0
   23.9840   10.9640   30.5650 H   0  0  0  0  0  0  0  0  0  0  0  0
   19.6350    6.9470   32.5600 H   0  0  0  0  0  0  0  0  0  0  0  0
   18.0440    8.2620   33.8120 H   0  0  0  0  0  0  0  0  0  0  0  0
   18.1160   10.0200   33.8460 H   0  0  0  0  0  0  0  0  0  0  0  0
   22.7410    6.8360   30.3700 H   0  0  0  0  0  0  0  0  0  0  0  0
   21.4750    3.4530   29.9170 H   0  0  0  0  0  0  0  0  0  0  0  0
   22.2300    4.8340   29.0010 H   0  0  0  0  0  0  0  0  0  0  0  0
   26.1040    6.5910   28.7720 H   0  0  0  0  0  0  0  0  0  0  0  0
   24.6830    7.7560   28.7270 H   0  0  0  0  0  0  0  0  0  0  0  0
   25.5340    7.4160   30.3170 H   0  0  0  0  0  0  0  0  0  0  0  0
   26.6550    5.2760   30.6730 H   0  0  0  0  0  0  0  0  0  0  0  0
   26.9490    3.3570   32.1610 H   0  0  0  0  0  0  0  0  0  0  0  0
   22.7680    2.2910   31.6730 H   0  0  0  0  0  0  0  0  0  0  0  0
   25.8180    0.3370   34.0410 H   0  0  0  0  0  0  0  0  0  0  0  0
   26.4600    2.0560   34.1400 H   0  0  0  0  0  0  0  0  0  0  0  0
   26.8740    0.9980   32.6920 H   0  0  0  0  0  0  0  0  0  0  0  0
  1  2  1  0  0  0  0
  1 28  1  0  0  0  0
  2  3  1  0  0  0  0
  2 29  1  0  0  0  0
  2 30  1  0  0  0  0
  3  4  1  0  0  0  0
  3 31  1  0  0  0  0
  3 32  1  0  0  0  0
  4  5  1  0  0  0  0
  5 11  2  0  0  0  0
  5  6  1  0  0  0  0
  6  7  2  0  0  0  0
  7  8  1  0  0  0  0
  7 14  1  0  0  0  0
  8  9  2  0  0  0  0
  8 33  1  0  0  0  0
  9 10  1  0  0  0  0
  9 11  1  0  0  0  0
 10 34  1  0  0  0  0
 10 35  1  0  0  0  0
 11 12  1  0  0  0  0
 12 13  3  0  0  0  0
 14 15  1  0  0  0  0
 14 36  1  0  0  0  0
 15 16  2  0  0  0  0
 15 17  1  0  0  0  0
 17 18  1  0  0  0  0
 17 37  1  0  0  0  0
 17 38  1  0  0  0  0
 18 25  2  0  0  0  0
 18 19  1  0  0  0  0
 19 20  1  0  0  0  0
 19 22  2  0  0  0  0
 20 21  1  0  0  0  0
 21 39  1  0  0  0  0
 21 40  1  0  0  0  0
 21 41  1  0  0  0  0
 22 23  1  0  0  0  0
 22 42  1  0  0  0  0
 23 24  2  0  0  0  0
 23 43  1  0  0  0  0
 24 25  1  0  0  0  0
 24 26  1  0  0  0  0
 25 44  1  0  0  0  0
 26 27  1  0  0  0  0
 27 45  1  0  0  0  0
 27 46  1  0  0  0  0
 27 47  1  0  0  0  0
M  END
$$$$
