p38a_2m
 OpenBabel02232411163D
Structure written by MMmdl.
 50 54  0  0  0  0  0  0  0  0999 V2000
   36.3280   35.9740   15.8920 C   0  0  0  0  0  0  0  0  0  0  0  0
   34.6120   35.0380   21.5040 C   0  0  0  0  0  0  0  0  0  0  0  0
   35.6470   35.5340   17.0220 C   0  0  0  0  0  0  0  0  0  0  0  0
   34.2770   39.1500   24.0420 C   0  0  0  0  0  0  0  0  0  0  0  0
   34.8180   37.8930   21.6410 C   0  0  0  0  0  0  0  0  0  0  0  0
   35.1960   37.2220   20.4260 C   0  0  0  0  0  0  0  0  0  0  0  0
   37.6240   36.4660   16.0950 C   0  0  0  0  0  0  0  0  0  0  0  0
   38.2510   36.4910   17.3440 C   0  0  0  0  0  0  0  0  0  0  0  0
   37.5340   36.0730   18.4710 C   0  0  0  0  0  0  0  0  0  0  0  0
   34.5140   37.1510   22.8210 C   0  0  0  0  0  0  0  0  0  0  0  0
   34.7450   39.3090   21.7370 C   0  0  0  0  0  0  0  0  0  0  0  0
   35.1330   35.8730   20.3880 C   0  0  0  0  0  0  0  0  0  0  0  0
   36.2300   35.5970   18.3050 C   0  0  0  0  0  0  0  0  0  0  0  0
   34.4270   35.0240   16.9190 F   0  0  0  0  0  0  0  0  0  0  0  0
   35.4690   35.0260   19.3330 O   0  0  0  0  0  0  0  0  0  0  0  0
   34.4710   39.9430   22.8830 N   0  0  0  0  0  0  0  0  0  0  0  0
   34.3120   33.8700   21.4210 O   0  0  0  0  0  0  0  0  0  0  0  0
   34.4580   35.7430   22.7560 N   0  0  0  0  0  0  0  0  0  0  0  0
   34.2410   37.7710   24.0180 N   0  0  0  0  0  0  0  0  0  0  0  0
   34.2010   39.8850   25.2030 N   0  0  0  0  0  0  0  0  0  0  0  0
   35.8690   35.9630   14.9000 H   0  0  0  0  0  0  0  0  0  0  0  0
   35.5330   37.8320   19.5840 H   0  0  0  0  0  0  0  0  0  0  0  0
   39.2750   36.8600   17.4480 H   0  0  0  0  0  0  0  0  0  0  0  0
   37.9910   36.1430   19.4600 H   0  0  0  0  0  0  0  0  0  0  0  0
   34.9070   39.9310   20.8410 H   0  0  0  0  0  0  0  0  0  0  0  0
   34.1180   40.9230   25.0840 H   0  0  0  0  0  0  0  0  0  0  0  0
   38.2730   36.9670   15.0470 F   0  0  0  0  0  0  0  0  0  0  0  0
   33.2180   37.0010   26.8970 C   0  0  0  0  0  0  0  0  0  0  0  0
   34.2460   38.1220   27.0840 C   0  0  0  0  0  0  0  0  0  0  0  0
   33.7940   39.5040   26.5950 C   0  0  0  0  0  0  0  0  0  0  0  0
   32.2860   39.7610   26.8230 C   0  0  0  0  0  0  0  0  0  0  0  0
   31.4120   38.5400   26.5340 C   0  0  0  0  0  0  0  0  0  0  0  0
   31.8800   37.3950   27.2740 O   0  0  0  0  0  0  0  0  0  0  0  0
   33.4210   36.1600   27.6010 H   0  0  0  0  0  0  0  0  0  0  0  0
   33.1900   36.6620   25.8380 H   0  0  0  0  0  0  0  0  0  0  0  0
   35.1950   37.8260   26.5680 H   0  0  0  0  0  0  0  0  0  0  0  0
   34.4800   38.2240   28.1760 H   0  0  0  0  0  0  0  0  0  0  0  0
   34.3590   40.2760   27.2160 H   0  0  0  0  0  0  0  0  0  0  0  0
   32.1680   40.0620   27.8940 H   0  0  0  0  0  0  0  0  0  0  0  0
   31.9460   40.6190   26.1950 H   0  0  0  0  0  0  0  0  0  0  0  0
   30.3850   38.6770   26.9390 H   0  0  0  0  0  0  0  0  0  0  0  0
   31.4060   38.3030   25.4470 H   0  0  0  0  0  0  0  0  0  0  0  0
   34.2620   34.9610   23.9950 C   0  0  0  0  0  0  0  0  0  0  0  0
   35.3770   34.9590   25.0390 C   0  0  0  0  0  0  0  0  0  0  0  0
   35.0880   33.7030   24.2460 C   0  0  0  0  0  0  0  0  0  0  0  0
   33.2080   34.9780   24.3260 H   0  0  0  0  0  0  0  0  0  0  0  0
   36.2870   35.5310   24.8340 H   0  0  0  0  0  0  0  0  0  0  0  0
   35.1010   34.9930   26.1030 H   0  0  0  0  0  0  0  0  0  0  0  0
   35.8250   33.3550   23.5200 H   0  0  0  0  0  0  0  0  0  0  0  0
   34.5770   32.8720   24.7570 H   0  0  0  0  0  0  0  0  0  0  0  0
  1  3  2  0  0  0  0
  1  7  1  0  0  0  0
  1 21  1  0  0  0  0
  2 12  1  0  0  0  0
  2 17  2  0  0  0  0
  2 18  1  0  0  0  0
  3 13  1  0  0  0  0
  3 14  1  0  0  0  0
  4 16  2  0  0  0  0
  4 19  1  0  0  0  0
  4 20  1  0  0  0  0
  5  6  1  0  0  0  0
  5 10  1  0  0  0  0
  5 11  2  0  0  0  0
  6 12  2  0  0  0  0
  6 22  1  0  0  0  0
  7  8  2  0  0  0  0
  7 27  1  0  0  0  0
  8  9  1  0  0  0  0
  8 23  1  0  0  0  0
  9 13  2  0  0  0  0
  9 24  1  0  0  0  0
 10 18  1  0  0  0  0
 10 19  2  0  0  0  0
 11 16  1  0  0  0  0
 11 25  1  0  0  0  0
 12 15  1  0  0  0  0
 13 15  1  0  0  0  0
 18 43  1  0  0  0  0
 20 26  1  0  0  0  0
 20 30  1  0  0  0  0
 28 29  1  0  0  0  0
 28 33  1  0  0  0  0
 28 34  1  0  0  0  0
 28 35  1  0  0  0  0
 29 30  1  0  0  0  0
 29 36  1  0  0  0  0
 29 37  1  0  0  0  0
 30 31  1  0  0  0  0
 30 38  1  0  0  0  0
 31 32  1  0  0  0  0
 31 39  1  0  0  0  0
 31 40  1  0  0  0  0
 32 33  1  0  0  0  0
 32 41  1  0  0  0  0
 32 42  1  0  0  0  0
 43 44  1  0  0  0  0
 43 45  1  0  0  0  0
 43 46  1  0  0  0  0
 44 45  1  0  0  0  0
 44 47  1  0  0  0  0
 44 48  1  0  0  0  0
 45 49  1  0  0  0  0
 45 50  1  0  0  0  0
M  END
$$$$
