p38a_2r
 OpenBabel02232411163D
Structure written by MMmdl.
 56 59  0  0  0  0  0  0  0  0999 V2000
   36.3250   35.9900   15.9280 C   0  0  0  0  0  0  0  0  0  0  0  0
   34.4750   34.9450   21.4750 C   0  0  0  0  0  0  0  0  0  0  0  0
   35.6200   35.5490   17.0420 C   0  0  0  0  0  0  0  0  0  0  0  0
   34.1280   38.9620   24.1560 C   0  0  0  0  0  0  0  0  0  0  0  0
   34.7480   37.7930   21.7360 C   0  0  0  0  0  0  0  0  0  0  0  0
   35.1530   37.1590   20.5110 C   0  0  0  0  0  0  0  0  0  0  0  0
   37.6270   36.4560   16.1580 C   0  0  0  0  0  0  0  0  0  0  0  0
   38.2330   36.4580   17.4170 C   0  0  0  0  0  0  0  0  0  0  0  0
   37.4910   36.0390   18.5270 C   0  0  0  0  0  0  0  0  0  0  0  0
   34.3040   37.0100   22.8470 C   0  0  0  0  0  0  0  0  0  0  0  0
   34.7890   39.2020   21.9170 C   0  0  0  0  0  0  0  0  0  0  0  0
   35.0600   35.8130   20.4180 C   0  0  0  0  0  0  0  0  0  0  0  0
   36.1830   35.5840   18.3360 C   0  0  0  0  0  0  0  0  0  0  0  0
   34.3920   35.0630   16.9130 F   0  0  0  0  0  0  0  0  0  0  0  0
   35.4000   35.0000   19.3360 O   0  0  0  0  0  0  0  0  0  0  0  0
   34.4760   39.8000   23.0740 N   0  0  0  0  0  0  0  0  0  0  0  0
   34.2640   33.7570   21.3540 O   0  0  0  0  0  0  0  0  0  0  0  0
   34.1620   35.6130   22.7090 N   0  0  0  0  0  0  0  0  0  0  0  0
   34.0460   37.5850   24.0630 N   0  0  0  0  0  0  0  0  0  0  0  0
   33.8560   39.5640   25.3610 N   0  0  0  0  0  0  0  0  0  0  0  0
   35.8830   35.9970   14.9280 H   0  0  0  0  0  0  0  0  0  0  0  0
   35.5390   37.7880   19.7040 H   0  0  0  0  0  0  0  0  0  0  0  0
   39.2610   36.8110   17.5390 H   0  0  0  0  0  0  0  0  0  0  0  0
   37.9310   36.0890   19.5250 H   0  0  0  0  0  0  0  0  0  0  0  0
   35.0830   39.8540   21.0750 H   0  0  0  0  0  0  0  0  0  0  0  0
   33.8880   40.5990   25.4360 H   0  0  0  0  0  0  0  0  0  0  0  0
   38.3030   36.9540   15.1250 F   0  0  0  0  0  0  0  0  0  0  0  0
   33.4120   40.6350   28.3650 C   0  0  0  0  0  0  0  0  0  0  0  0
   32.5690   39.7100   27.4790 C   0  0  0  0  0  0  0  0  0  0  0  0
   33.4140   38.7950   26.5680 C   0  0  0  0  0  0  0  0  0  0  0  0
   34.6160   38.1980   27.3300 C   0  0  0  0  0  0  0  0  0  0  0  0
   35.3630   39.2440   28.1580 C   0  0  0  0  0  0  0  0  0  0  0  0
   34.4630   39.9300   29.0590 O   0  0  0  0  0  0  0  0  0  0  0  0
   32.8050   41.0450   29.2050 H   0  0  0  0  0  0  0  0  0  0  0  0
   33.8720   41.4490   27.7620 H   0  0  0  0  0  0  0  0  0  0  0  0
   31.8860   40.3400   26.8580 H   0  0  0  0  0  0  0  0  0  0  0  0
   31.9340   39.0520   28.1250 H   0  0  0  0  0  0  0  0  0  0  0  0
   32.7580   37.9420   26.2220 H   0  0  0  0  0  0  0  0  0  0  0  0
   34.2240   37.3940   28.0040 H   0  0  0  0  0  0  0  0  0  0  0  0
   35.3260   37.7160   26.6150 H   0  0  0  0  0  0  0  0  0  0  0  0
   36.0820   38.7690   28.8650 H   0  0  0  0  0  0  0  0  0  0  0  0
   35.8600   39.9960   27.5050 H   0  0  0  0  0  0  0  0  0  0  0  0
   33.5400   34.8160   23.8060 C   0  0  0  0  0  0  0  0  0  0  0  0
   33.9270   33.7600   23.7530 H   0  0  0  0  0  0  0  0  0  0  0  0
   33.8560   35.2500   24.7980 H   0  0  0  0  0  0  0  0  0  0  0  0
   31.9770   34.7830   23.7320 C   0  0  0  0  0  0  0  0  0  0  0  0
   31.5790   36.1180   23.3460 O   0  0  0  0  0  0  0  0  0  0  0  0
   30.8510   36.0820   22.6860 H   0  0  0  0  0  0  0  0  0  0  0  0
   31.3940   34.5100   25.1250 C   0  0  0  0  0  0  0  0  0  0  0  0
   31.6680   35.3180   25.8430 H   0  0  0  0  0  0  0  0  0  0  0  0
   30.2810   34.4600   25.0790 H   0  0  0  0  0  0  0  0  0  0  0  0
   31.7680   33.5420   25.5300 H   0  0  0  0  0  0  0  0  0  0  0  0
   31.4490   33.7730   22.7090 C   0  0  0  0  0  0  0  0  0  0  0  0
   30.3440   33.8750   22.5980 H   0  0  0  0  0  0  0  0  0  0  0  0
   31.9200   33.9120   21.7120 H   0  0  0  0  0  0  0  0  0  0  0  0
   31.6580   32.7320   23.0500 H   0  0  0  0  0  0  0  0  0  0  0  0
  1  3  2  0  0  0  0
  1  7  1  0  0  0  0
  1 21  1  0  0  0  0
  2 12  1  0  0  0  0
  2 17  2  0  0  0  0
  2 18  1  0  0  0  0
  3 13  1  0  0  0  0
  3 14  1  0  0  0  0
  4 16  2  0  0  0  0
  4 19  1  0  0  0  0
  4 20  1  0  0  0  0
  5  6  1  0  0  0  0
  5 10  1  0  0  0  0
  5 11  2  0  0  0  0
  6 12  2  0  0  0  0
  6 22  1  0  0  0  0
  7  8  2  0  0  0  0
  7 27  1  0  0  0  0
  8  9  1  0  0  0  0
  8 23  1  0  0  0  0
  9 13  2  0  0  0  0
  9 24  1  0  0  0  0
 10 18  1  0  0  0  0
 10 19  2  0  0  0  0
 11 16  1  0  0  0  0
 11 25  1  0  0  0  0
 12 15  1  0  0  0  0
 13 15  1  0  0  0  0
 18 43  1  0  0  0  0
 20 26  1  0  0  0  0
 20 30  1  0  0  0  0
 28 29  1  0  0  0  0
 28 33  1  0  0  0  0
 28 34  1  0  0  0  0
 28 35  1  0  0  0  0
 29 30  1  0  0  0  0
 29 36  1  0  0  0  0
 29 37  1  0  0  0  0
 30 31  1  0  0  0  0
 30 38  1  0  0  0  0
 31 32  1  0  0  0  0
 31 39  1  0  0  0  0
 31 40  1  0  0  0  0
 32 33  1  0  0  0  0
 32 41  1  0  0  0  0
 32 42  1  0  0  0  0
 43 44  1  0  0  0  0
 43 45  1  0  0  0  0
 43 46  1  0  0  0  0
 46 47  1  0  0  0  0
 46 49  1  0  0  0  0
 46 53  1  0  0  0  0
 47 48  1  0  0  0  0
 49 50  1  0  0  0  0
 49 51  1  0  0  0  0
 49 52  1  0  0  0  0
 53 54  1  0  0  0  0
 53 55  1  0  0  0  0
 53 56  1  0  0  0  0
M  END
$$$$
