26 flip
                    3D
 Schrodinger Suite 2022-3.
 43 46  0  0  1  0  0  0  0  0999 V2000
    3.3380  -48.2740    7.1690 O   0  0  0  0  0  0  0  0  0  0  0  0
    2.9140  -49.2930    6.6150 C   0  0  0  0  0  0  0  0  0  0  0  0
    3.5520  -50.2700    6.1990 O   0  5  0  0  0  0  0  0  0  0  0  0
    1.3790  -49.4100    6.4300 C   0  0  0  0  0  0  0  0  0  0  0  0
   -0.4470  -50.7110    6.5250 C   0  0  0  0  0  0  0  0  0  0  0  0
   -1.3170  -51.7790    6.7240 C   0  0  0  0  0  0  0  0  0  0  0  0
   -2.6630  -51.5340    6.4370 C   0  0  0  0  0  0  0  0  0  0  0  0
   -3.0990  -50.2790    5.9720 C   0  0  0  0  0  0  0  0  0  0  0  0
   -2.2120  -49.2180    5.7800 C   0  0  0  0  0  0  0  0  0  0  0  0
   -0.8580  -49.4240    6.0610 C   0  0  0  0  0  0  0  0  0  0  0  0
    0.3470  -48.6070    6.0210 C   0  0  0  0  0  0  0  0  0  0  0  0
    0.3700  -47.1810    5.6030 C   0  0  0  0  0  0  0  0  0  0  0  0
    0.2260  -46.2050    6.7870 C   0  0  0  0  0  0  0  0  0  0  0  0
   -1.1290  -46.3170    7.4890 C   0  0  0  0  0  0  0  0  0  0  0  0
   -2.0990  -45.9550    6.4460 O   0  0  0  0  0  0  0  0  0  0  0  0
   -3.3190  -45.4230    6.7550 C   0  0  0  0  0  0  0  0  0  0  0  0
   -5.8330  -44.1770    6.9710 C   0  0  0  0  0  0  0  0  0  0  0  0
   -5.0360  -43.9400    5.8760 C   0  0  0  0  0  0  0  0  0  0  0  0
   -3.7670  -44.5480    5.7710 C   0  0  0  0  0  0  0  0  0  0  0  0
   -0.9960  -52.7540    7.0870 H   0  0  0  0  0  0  0  0  0  0  0  0
   -3.3970  -52.3290    6.5800 H   0  0  0  0  0  0  0  0  0  0  0  0
   -4.1600  -50.1350    5.7610 H   0  0  0  0  0  0  0  0  0  0  0  0
   -2.5790  -48.2530    5.4290 H   0  0  0  0  0  0  0  0  0  0  0  0
   -0.4900  -47.0040    4.9040 H   0  0  0  0  0  0  0  0  0  0  0  0
    1.3200  -46.9420    5.0660 H   0  0  0  0  0  0  0  0  0  0  0  0
    0.3430  -45.1620    6.4110 H   0  0  0  0  0  0  0  0  0  0  0  0
    1.0180  -46.4190    7.5440 H   0  0  0  0  0  0  0  0  0  0  0  0
   -1.2300  -45.6050    8.3320 H   0  0  0  0  0  0  0  0  0  0  0  0
   -1.3530  -47.3720    7.7560 H   0  0  0  0  0  0  0  0  0  0  0  0
   -3.1450  -44.3280    4.9110 H   0  0  0  0  0  0  0  0  0  0  0  0
   -5.3980  -45.0700    7.9940 C   0  0  0  0  0  0  0  0  0  0  0  0
   -4.1490  -45.7520    7.8870 C   0  0  0  0  0  0  0  0  0  0  0  0
   -3.8560  -46.7610    8.8540 C   0  0  0  0  0  0  0  0  0  0  0  0
   -4.6980  -47.0050    9.9110 C   0  0  0  0  0  0  0  0  0  0  0  0
   -5.8950  -46.2530   10.0630 C   0  0  0  0  0  0  0  0  0  0  0  0
   -6.2430  -45.3180    9.1230 C   0  0  0  0  0  0  0  0  0  0  0  0
   -2.9790  -47.3940    8.7370 H   0  0  0  0  0  0  0  0  0  0  0  0
   -4.4820  -47.7960   10.6280 H   0  0  0  0  0  0  0  0  0  0  0  0
   -6.5440  -46.4490   10.9120 H   0  0  0  0  0  0  0  0  0  0  0  0
   -7.1780  -44.7670    9.2060 H   0  0  0  0  0  0  0  0  0  0  0  0
   -5.3690  -43.2730    5.0780 H   0  0  0  0  0  0  0  0  0  0  0  0
   -6.8110  -43.7050    7.0600 H   0  0  0  0  0  0  0  0  0  0  0  0
    0.9330  -50.7140    6.7430 O   0  0  0  0  0  0  0  0  0  0  0  0
  1  2  2  0  0  0  0
  2  3  1  0  0  0  0
  2  4  1  0  0  0  0
  4 11  2  0  0  0  0
  4 43  1  0  0  0  0
  5  6  1  0  0  0  0
  5 10  2  0  0  0  0
  5 43  1  0  0  0  0
  6  7  2  0  0  0  0
  6 20  1  0  0  0  0
  7  8  1  0  0  0  0
  7 21  1  0  0  0  0
  8  9  2  0  0  0  0
  8 22  1  0  0  0  0
  9 10  1  0  0  0  0
  9 23  1  0  0  0  0
 10 11  1  0  0  0  0
 11 12  1  0  0  0  0
 12 24  1  0  0  0  0
 12 25  1  0  0  0  0
 12 13  1  0  0  0  0
 13 14  1  0  0  0  0
 13 26  1  0  0  0  0
 13 27  1  0  0  0  0
 14 15  1  0  0  0  0
 14 28  1  0  0  0  0
 14 29  1  0  0  0  0
 15 16  1  0  0  0  0
 16 19  2  0  0  0  0
 16 32  1  0  0  0  0
 17 18  2  0  0  0  0
 17 31  1  0  0  0  0
 17 42  1  0  0  0  0
 18 19  1  0  0  0  0
 18 41  1  0  0  0  0
 19 30  1  0  0  0  0
 31 32  2  0  0  0  0
 31 36  1  0  0  0  0
 32 33  1  0  0  0  0
 33 34  2  0  0  0  0
 33 37  1  0  0  0  0
 34 35  1  0  0  0  0
 34 38  1  0  0  0  0
 35 36  2  0  0  0  0
 35 39  1  0  0  0  0
 36 40  1  0  0  0  0
M  CHG  1   3  -1
M  END
$$$$
