1oiu
 OpenBabel02232411153D
Structure written by MMmdl.
 50 53  0  0  0  0  0  0  0  0999 V2000
    1.9070   28.7560    6.7720 C   0  0  0  0  0  0  0  0  0  0  0  0
   -1.5210   31.4270    7.9270 C   0  0  0  0  0  0  0  0  0  0  0  0
   -0.1130   25.9420    8.9220 C   0  0  0  0  0  0  0  0  0  0  0  0
   -0.9000   25.2720   10.0570 C   0  0  0  0  0  0  0  0  0  0  0  0
   -0.7490   23.7430    9.8820 C   0  0  0  0  0  0  0  0  0  0  0  0
   -1.3720   22.9750   11.0560 C   0  0  0  0  0  0  0  0  0  0  0  0
   -0.8120   23.4520   12.4050 C   0  0  0  0  0  0  0  0  0  0  0  0
   -1.0200   24.9640   12.5820 C   0  0  0  0  0  0  0  0  0  0  0  0
   -0.3810   25.7480   11.4270 C   0  0  0  0  0  0  0  0  0  0  0  0
    5.3660   25.4320    5.6880 C   0  0  0  0  0  0  0  0  0  0  0  0
    5.2600   24.7600    6.9130 C   0  0  0  0  0  0  0  0  0  0  0  0
    4.4440   25.2750    7.9230 C   0  0  0  0  0  0  0  0  0  0  0  0
    3.7240   26.4550    7.7280 C   0  0  0  0  0  0  0  0  0  0  0  0
    1.1840   27.8260    7.5140 N   0  0  0  0  0  0  0  0  0  0  0  0
   -0.0080   28.1810    8.0600 C   0  0  0  0  0  0  0  0  0  0  0  0
   -0.7020   27.3010    8.7950 O   0  0  0  0  0  0  0  0  0  0  0  0
   -0.5140   29.4950    7.8720 C   0  0  0  0  0  0  0  0  0  0  0  0
   -1.6490   30.1650    8.3420 N   0  0  0  0  0  0  0  0  0  0  0  0
   -0.3050   31.6370    7.1830 N   0  0  0  0  0  0  0  0  0  0  0  0
    0.3350   30.4030    7.1170 C   0  0  0  0  0  0  0  0  0  0  0  0
    1.5260   30.0640    6.5230 N   0  0  0  0  0  0  0  0  0  0  0  0
    3.0970   28.3260    6.1910 N   0  0  0  0  0  0  0  0  0  0  0  0
    3.8130   27.1190    6.4930 C   0  0  0  0  0  0  0  0  0  0  0  0
    4.6640   26.6180    5.4780 C   0  0  0  0  0  0  0  0  0  0  0  0
   -2.2080   32.2460    8.1160 H   0  0  0  0  0  0  0  0  0  0  0  0
    0.9670   26.0350    9.1740 H   0  0  0  0  0  0  0  0  0  0  0  0
   -0.2740   25.4530    7.9410 H   0  0  0  0  0  0  0  0  0  0  0  0
   -1.9810   25.5400    9.9800 H   0  0  0  0  0  0  0  0  0  0  0  0
   -1.2490   23.4300    8.9390 H   0  0  0  0  0  0  0  0  0  0  0  0
    0.3370   23.4830    9.8200 H   0  0  0  0  0  0  0  0  0  0  0  0
   -2.4720   23.1310   11.0510 H   0  0  0  0  0  0  0  0  0  0  0  0
   -1.1620   21.8870   10.9400 H   0  0  0  0  0  0  0  0  0  0  0  0
   -1.3210   22.9080   13.2330 H   0  0  0  0  0  0  0  0  0  0  0  0
    0.2790   23.2270   12.4450 H   0  0  0  0  0  0  0  0  0  0  0  0
   -2.1100   25.1860   12.6380 H   0  0  0  0  0  0  0  0  0  0  0  0
   -0.5490   25.2890   13.5380 H   0  0  0  0  0  0  0  0  0  0  0  0
    0.7260   25.6100   11.4810 H   0  0  0  0  0  0  0  0  0  0  0  0
   -0.6060   26.8320   11.5500 H   0  0  0  0  0  0  0  0  0  0  0  0
    5.8170   23.8370    7.1000 H   0  0  0  0  0  0  0  0  0  0  0  0
    4.3580   24.7480    8.8770 H   0  0  0  0  0  0  0  0  0  0  0  0
    3.1010   26.8380    8.5390 H   0  0  0  0  0  0  0  0  0  0  0  0
   -0.0300   32.5160    6.7220 H   0  0  0  0  0  0  0  0  0  0  0  0
    3.6450   29.0180    5.6290 H   0  0  0  0  0  0  0  0  0  0  0  0
    4.7620   27.1810    4.5430 H   0  0  0  0  0  0  0  0  0  0  0  0
    6.3670   24.7150    4.4550 S   0  0  0  0  0  0  0  0  0  0  0  0
    5.9940   23.3100    4.2110 O   0  0  0  0  0  0  0  0  0  0  0  0
    6.3900   25.5220    3.2280 O   0  0  0  0  0  0  0  0  0  0  0  0
    7.9030   24.7200    5.2050 N   0  0  0  0  0  0  0  0  0  0  0  0
    8.5960   24.0080    4.9270 H   0  0  0  0  0  0  0  0  0  0  0  0
    8.3530   25.6550    5.3360 H   0  0  0  0  0  0  0  0  0  0  0  0
  1 14  2  0  0  0  0
  1 21  1  0  0  0  0
  1 22  1  0  0  0  0
  2 18  2  0  0  0  0
  2 19  1  0  0  0  0
  2 25  1  0  0  0  0
  3  4  1  0  0  0  0
  3 16  1  0  0  0  0
  3 26  1  0  0  0  0
  3 27  1  0  0  0  0
  4  5  1  0  0  0  0
  4  9  1  0  0  0  0
  4 28  1  0  0  0  0
  5  6  1  0  0  0  0
  5 29  1  0  0  0  0
  5 30  1  0  0  0  0
  6  7  1  0  0  0  0
  6 31  1  0  0  0  0
  6 32  1  0  0  0  0
  7  8  1  0  0  0  0
  7 33  1  0  0  0  0
  7 34  1  0  0  0  0
  8  9  1  0  0  0  0
  8 35  1  0  0  0  0
  8 36  1  0  0  0  0
  9 37  1  0  0  0  0
  9 38  1  0  0  0  0
 10 11  2  0  0  0  0
 10 24  1  0  0  0  0
 10 45  1  0  0  0  0
 11 12  1  0  0  0  0
 11 39  1  0  0  0  0
 12 13  2  0  0  0  0
 12 40  1  0  0  0  0
 13 23  1  0  0  0  0
 13 41  1  0  0  0  0
 14 15  1  0  0  0  0
 15 16  1  0  0  0  0
 15 17  2  0  0  0  0
 17 18  1  0  0  0  0
 17 20  1  0  0  0  0
 19 20  1  0  0  0  0
 19 42  1  0  0  0  0
 20 21  2  0  0  0  0
 22 23  1  0  0  0  0
 22 43  1  0  0  0  0
 23 24  2  0  0  0  0
 24 44  1  0  0  0  0
 45 46  2  0  0  0  0
 45 47  2  0  0  0  0
 45 48  1  0  0  0  0
 48 49  1  0  0  0  0
 48 50  1  0  0  0  0
M  END
$$$$
