p38a_2aa
 OpenBabel02232411163D
Structure written by MMmdl.
 43 45  0  0  0  0  0  0  0  0999 V2000
   38.3000   36.5660   17.1070 C   0  0  0  0  0  0  0  0  0  0  0  0
   34.5270   35.0260   21.1050 C   0  0  0  0  0  0  0  0  0  0  0  0
   37.5050   36.0900   18.1460 C   0  0  0  0  0  0  0  0  0  0  0  0
   33.8340   39.0600   23.6770 C   0  0  0  0  0  0  0  0  0  0  0  0
   33.1420   38.8570   26.0670 C   0  0  0  0  0  0  0  0  0  0  0  0
   34.5880   37.9070   21.2940 C   0  0  0  0  0  0  0  0  0  0  0  0
   35.0140   37.2690   20.0780 C   0  0  0  0  0  0  0  0  0  0  0  0
   37.6640   36.7440   15.8700 C   0  0  0  0  0  0  0  0  0  0  0  0
   36.3180   36.4480   15.6440 C   0  0  0  0  0  0  0  0  0  0  0  0
   35.5450   35.9530   16.6990 C   0  0  0  0  0  0  0  0  0  0  0  0
   34.1890   37.1120   22.4090 C   0  0  0  0  0  0  0  0  0  0  0  0
   34.5670   39.3170   21.4680 C   0  0  0  0  0  0  0  0  0  0  0  0
   35.0100   35.9170   20.0160 C   0  0  0  0  0  0  0  0  0  0  0  0
   36.1470   35.7650   17.9470 C   0  0  0  0  0  0  0  0  0  0  0  0
   33.7360   34.9190   23.5010 C   0  0  0  0  0  0  0  0  0  0  0  0
   38.0200   35.9420   19.3600 F   0  0  0  0  0  0  0  0  0  0  0  0
   35.4200   35.1150   18.9540 O   0  0  0  0  0  0  0  0  0  0  0  0
   34.2180   39.9070   22.6240 N   0  0  0  0  0  0  0  0  0  0  0  0
   34.4310   33.8190   21.0360 O   0  0  0  0  0  0  0  0  0  0  0  0
   34.1640   35.7120   22.3140 N   0  0  0  0  0  0  0  0  0  0  0  0
   33.8290   37.6850   23.6040 N   0  0  0  0  0  0  0  0  0  0  0  0
   33.3440   39.6610   24.8290 N   0  0  0  0  0  0  0  0  0  0  0  0
   39.3510   36.8240   17.2570 H   0  0  0  0  0  0  0  0  0  0  0  0
   34.4740   38.4420   26.7440 C   0  0  0  0  0  0  0  0  0  0  0  0
   35.3350   37.9010   19.2480 H   0  0  0  0  0  0  0  0  0  0  0  0
   35.8570   36.6120   14.6680 H   0  0  0  0  0  0  0  0  0  0  0  0
   34.4840   35.7340   16.5440 H   0  0  0  0  0  0  0  0  0  0  0  0
   34.8450   39.9780   20.6300 H   0  0  0  0  0  0  0  0  0  0  0  0
   34.3960   35.1550   24.3800 H   0  0  0  0  0  0  0  0  0  0  0  0
   32.6780   35.1790   23.7760 H   0  0  0  0  0  0  0  0  0  0  0  0
   33.7980   33.8220   23.2800 H   0  0  0  0  0  0  0  0  0  0  0  0
   33.5920   40.6550   24.9980 H   0  0  0  0  0  0  0  0  0  0  0  0
   38.3710   37.2610   14.8680 F   0  0  0  0  0  0  0  0  0  0  0  0
   32.2420   39.6700   27.0310 C   0  0  0  0  0  0  0  0  0  0  0  0
   32.9420   40.7890   27.6090 O   0  0  0  0  0  0  0  0  0  0  0  0
   33.0640   41.4870   26.8850 H   0  0  0  0  0  0  0  0  0  0  0  0
   31.3340   40.0410   26.5030 H   0  0  0  0  0  0  0  0  0  0  0  0
   31.9730   39.0480   27.9200 H   0  0  0  0  0  0  0  0  0  0  0  0
   35.3130   39.5690   27.0110 O   0  0  0  0  0  0  0  0  0  0  0  0
   34.2500   37.9140   27.7030 H   0  0  0  0  0  0  0  0  0  0  0  0
   35.0890   37.8010   26.0710 H   0  0  0  0  0  0  0  0  0  0  0  0
   34.7540   40.2550   27.4770 H   0  0  0  0  0  0  0  0  0  0  0  0
   32.5760   37.9120   25.8000 H   0  0  0  0  0  0  0  0  0  0  0  0
  1  3  2  0  0  0  0
  1  8  1  0  0  0  0
  1 23  1  0  0  0  0
  2 13  1  0  0  0  0
  2 19  2  0  0  0  0
  2 20  1  0  0  0  0
  3 14  1  0  0  0  0
  3 16  1  0  0  0  0
  4 18  2  0  0  0  0
  4 21  1  0  0  0  0
  4 22  1  0  0  0  0
  5 22  1  0  0  0  0
  5 24  1  0  0  0  0
  5 34  1  0  0  0  0
  5 43  1  0  0  0  0
  6  7  1  0  0  0  0
  6 11  1  0  0  0  0
  6 12  2  0  0  0  0
  7 13  2  0  0  0  0
  7 25  1  0  0  0  0
  8  9  2  0  0  0  0
  8 33  1  0  0  0  0
  9 10  1  0  0  0  0
  9 26  1  0  0  0  0
 10 14  2  0  0  0  0
 10 27  1  0  0  0  0
 11 20  1  0  0  0  0
 11 21  2  0  0  0  0
 12 18  1  0  0  0  0
 12 28  1  0  0  0  0
 13 17  1  0  0  0  0
 14 17  1  0  0  0  0
 15 20  1  0  0  0  0
 15 29  1  0  0  0  0
 15 30  1  0  0  0  0
 15 31  1  0  0  0  0
 22 32  1  0  0  0  0
 24 39  1  0  0  0  0
 24 40  1  0  0  0  0
 24 41  1  0  0  0  0
 34 35  1  0  0  0  0
 34 37  1  0  0  0  0
 34 38  1  0  0  0  0
 35 36  1  0  0  0  0
 39 42  1  0  0  0  0
M  END
$$$$
