23470
 OpenBabel02232411173D
Structure written by MMmdl.
 42 43  0  0  0  0  0  0  0  0999 V2000
   37.5290    5.6590   15.4150 C   0  0  0  0  0  0  0  0  0  0  0  0
   36.7090    6.7980   16.0480 C   0  0  0  0  0  0  0  0  0  0  0  0
   36.4190    6.5330   17.5290 C   0  0  0  0  0  0  0  0  0  0  0  0
   37.3640    8.1300   15.8410 N   0  0  0  0  0  0  0  0  0  0  0  0
   38.6080    8.4340   16.4750 C   0  0  0  0  0  0  0  0  0  0  0  0
   38.9560    7.9410   17.5390 O   0  0  0  0  0  0  0  0  0  0  0  0
   39.3670    9.4270   15.8180 N   0  0  0  0  0  0  0  0  0  0  0  0
   40.6600    9.8900   16.2610 C   0  0  0  0  0  0  0  0  0  0  0  0
   41.6410    9.0170   16.7490 C   0  0  0  0  0  0  0  0  0  0  0  0
   42.9100    9.5370   17.0310 C   0  0  0  0  0  0  0  0  0  0  0  0
   43.2270   10.8680   16.7600 C   0  0  0  0  0  0  0  0  0  0  0  0
   42.2460   11.7400   16.2470 C   0  0  0  0  0  0  0  0  0  0  0  0
   42.5420   13.0960   15.8370 C   0  0  0  0  0  0  0  0  0  0  0  0
   43.6770   14.1270   16.6690 S   0  0  0  0  0  0  0  0  0  0  0  0
   43.3700   15.5140   15.6540 C   0  0  0  0  0  0  0  0  0  0  0  0
   44.0430   16.8520   15.9650 C   0  0  0  0  0  0  0  0  0  0  0  0
   44.2990   17.0480   17.1720 O   0  0  0  0  0  0  0  0  0  0  0  0
   44.2920   17.6350   15.0460 O   0  5  0  0  0  0  0  0  0  0  0  0
   42.4460   15.1740   14.6960 C   0  0  0  0  0  0  0  0  0  0  0  0
   42.0790   16.0350   13.7150 O   0  0  0  0  0  0  0  0  0  0  0  0
   40.6460   16.3310   13.6580 C   0  0  0  0  0  0  0  0  0  0  0  0
   40.6730   17.7420   12.9890 C   0  0  0  0  0  0  0  0  0  0  0  0
   41.7770   18.2770   12.8360 O   0  0  0  0  0  0  0  0  0  0  0  0
   39.5540   18.1930   12.6590 O   0  5  0  0  0  0  0  0  0  0  0  0
   42.0070   13.8000   14.7890 C   0  0  0  0  0  0  0  0  0  0  0  0
   40.8330   13.0230   13.5010 Br  0  0  0  0  0  0  0  0  0  0  0  0
   40.9350   11.2550   16.0870 C   0  0  0  0  0  0  0  0  0  0  0  0
   37.6860    5.8430   14.3270 H   0  0  0  0  0  0  0  0  0  0  0  0
   38.5220    5.5450   15.9050 H   0  0  0  0  0  0  0  0  0  0  0  0
   36.9780    4.6960   15.5220 H   0  0  0  0  0  0  0  0  0  0  0  0
   35.7220    6.8670   15.4990 H   0  0  0  0  0  0  0  0  0  0  0  0
   35.8450    7.3800   17.9670 H   0  0  0  0  0  0  0  0  0  0  0  0
   35.8050    5.6060   17.6220 H   0  0  0  0  0  0  0  0  0  0  0  0
   37.3620    6.3960   18.1080 H   0  0  0  0  0  0  0  0  0  0  0  0
   37.2600    8.4390   14.8590 H   0  0  0  0  0  0  0  0  0  0  0  0
   38.9130   10.0100   15.0820 H   0  0  0  0  0  0  0  0  0  0  0  0
   41.4430    7.9560   16.8900 H   0  0  0  0  0  0  0  0  0  0  0  0
   43.6690    8.8690   17.4440 H   0  0  0  0  0  0  0  0  0  0  0  0
   44.2460   11.2130   16.9380 H   0  0  0  0  0  0  0  0  0  0  0  0
   40.1500   15.5820   13.0110 H   0  0  0  0  0  0  0  0  0  0  0  0
   40.1910   16.3450   14.6690 H   0  0  0  0  0  0  0  0  0  0  0  0
   40.1160   11.9250   15.8120 H   0  0  0  0  0  0  0  0  0  0  0  0
  1  2  1  0  0  0  0
  1 28  1  0  0  0  0
  1 29  1  0  0  0  0
  1 30  1  0  0  0  0
  2  3  1  0  0  0  0
  2  4  1  0  0  0  0
  2 31  1  0  0  0  0
  3 32  1  0  0  0  0
  3 33  1  0  0  0  0
  3 34  1  0  0  0  0
  4  5  1  0  0  0  0
  4 35  1  0  0  0  0
  5  6  2  0  0  0  0
  5  7  1  0  0  0  0
  7  8  1  0  0  0  0
  7 36  1  0  0  0  0
  8 27  2  0  0  0  0
  8  9  1  0  0  0  0
  9 10  2  0  0  0  0
  9 37  1  0  0  0  0
 10 11  1  0  0  0  0
 10 38  1  0  0  0  0
 11 12  2  0  0  0  0
 11 39  1  0  0  0  0
 12 13  1  0  0  0  0
 12 27  1  0  0  0  0
 13 25  2  0  0  0  0
 13 14  1  0  0  0  0
 14 15  1  0  0  0  0
 15 16  1  0  0  0  0
 15 19  2  0  0  0  0
 16 17  2  0  0  0  0
 16 18  1  0  0  0  0
 19 20  1  0  0  0  0
 19 25  1  0  0  0  0
 20 21  1  0  0  0  0
 21 22  1  0  0  0  0
 21 40  1  0  0  0  0
 21 41  1  0  0  0  0
 22 23  2  0  0  0  0
 22 24  1  0  0  0  0
 25 26  1  0  0  0  0
 27 42  1  0  0  0  0
M  CHG  2  18  -1  24  -1
M  END
$$$$
