18639-1
 OpenBabel02232411163D
Structure written by MMmdl.
 48 49  0  0  0  0  0  0  0  0999 V2000
   23.8990   12.5910   30.3480 C   0  0  0  0  0  0  0  0  0  0  0  0
   23.4310   11.1520   30.4490 C   0  0  0  0  0  0  0  0  0  0  0  0
   22.1790   11.2600   31.2440 O   0  0  0  0  0  0  0  0  0  0  0  0
   21.5460   10.1220   31.5960 C   0  0  0  0  0  0  0  0  0  0  0  0
   22.0240    8.9330   31.1560 N   0  0  0  0  0  0  0  0  0  0  0  0
   21.2980    7.7970   31.4790 C   0  0  0  0  0  0  0  0  0  0  0  0
   20.1430    7.8340   32.2520 C   0  0  0  0  0  0  0  0  0  0  0  0
   19.6580    9.0830   32.7240 C   0  0  0  0  0  0  0  0  0  0  0  0
   18.5120    9.1210   33.4760 N   0  0  0  0  0  0  0  0  0  0  0  0
   20.3690   10.2800   32.3870 C   0  0  0  0  0  0  0  0  0  0  0  0
   19.9580   11.5790   32.7550 C   0  0  0  0  0  0  0  0  0  0  0  0
   19.6700   12.6710   33.0160 N   0  0  0  0  0  0  0  0  0  0  0  0
   21.8710    6.6290   30.9220 N   0  0  0  0  0  0  0  0  0  0  0  0
   21.2640    5.3580   30.8390 C   0  0  0  0  0  0  0  0  0  0  0  0
   20.1710    5.1170   31.3070 O   0  0  0  0  0  0  0  0  0  0  0  0
   22.0760    4.3470   30.0380 C   0  0  0  0  0  0  0  0  0  0  0  0
   23.4320    4.0480   30.6080 C   0  0  0  0  0  0  0  0  0  0  0  0
   24.5460    4.8910   30.3010 C   0  0  0  0  0  0  0  0  0  0  0  0
   24.2130    5.9410   29.4540 O   0  0  0  0  0  0  0  0  0  0  0  0
   25.1900    7.0060   29.2860 C   0  0  0  0  0  0  0  0  0  0  0  0
   25.8150    4.6300   30.7910 C   0  0  0  0  0  0  0  0  0  0  0  0
   26.0180    3.5110   31.6260 C   0  0  0  0  0  0  0  0  0  0  0  0
   27.3600    3.2350   32.1470 N   0  3  0  0  0  0  0  0  0  0  0  0
   27.4690    2.4460   33.0730 O   0  5  0  0  0  0  0  0  0  0  0  0
   28.3160    3.8000   31.6280 O   0  0  0  0  0  0  0  0  0  0  0  0
   24.9290    2.6620   31.9330 C   0  0  0  0  0  0  0  0  0  0  0  0
   23.6450    2.9360   31.4070 C   0  0  0  0  0  0  0  0  0  0  0  0
   25.2500    1.6190   32.7480 O   0  0  0  0  0  0  0  0  0  0  0  0
   24.2370    0.5940   32.9710 C   0  0  0  0  0  0  0  0  0  0  0  0
   24.7940   12.6290   29.6760 H   0  0  0  0  0  0  0  0  0  0  0  0
   23.1070   13.2400   29.9060 H   0  0  0  0  0  0  0  0  0  0  0  0
   24.1830   12.9990   31.3440 H   0  0  0  0  0  0  0  0  0  0  0  0
   23.1630   10.7190   29.4600 H   0  0  0  0  0  0  0  0  0  0  0  0
   24.1460   10.5060   31.0070 H   0  0  0  0  0  0  0  0  0  0  0  0
   19.5900    6.9200   32.4840 H   0  0  0  0  0  0  0  0  0  0  0  0
   18.0100    8.2490   33.7300 H   0  0  0  0  0  0  0  0  0  0  0  0
   18.1090   10.0060   33.7860 H   0  0  0  0  0  0  0  0  0  0  0  0
   22.7920    6.7680   30.4350 H   0  0  0  0  0  0  0  0  0  0  0  0
   21.4830    3.3960   29.9680 H   0  0  0  0  0  0  0  0  0  0  0  0
   22.2050    4.7620   28.9980 H   0  0  0  0  0  0  0  0  0  0  0  0
   25.5110    7.4020   30.2730 H   0  0  0  0  0  0  0  0  0  0  0  0
   26.0400    6.6280   28.6800 H   0  0  0  0  0  0  0  0  0  0  0  0
   24.5910    7.7610   28.7250 H   0  0  0  0  0  0  0  0  0  0  0  0
   26.6690    5.2680   30.5330 H   0  0  0  0  0  0  0  0  0  0  0  0
   22.8150    2.2610   31.6310 H   0  0  0  0  0  0  0  0  0  0  0  0
   24.8030   -0.1450   33.5870 H   0  0  0  0  0  0  0  0  0  0  0  0
   23.3820    1.0170   33.5410 H   0  0  0  0  0  0  0  0  0  0  0  0
   23.9240    0.1500   32.0010 H   0  0  0  0  0  0  0  0  0  0  0  0
  1  2  1  0  0  0  0
  1 30  1  0  0  0  0
  1 31  1  0  0  0  0
  1 32  1  0  0  0  0
  2  3  1  0  0  0  0
  2 33  1  0  0  0  0
  2 34  1  0  0  0  0
  3  4  1  0  0  0  0
  4 10  2  0  0  0  0
  4  5  1  0  0  0  0
  5  6  2  0  0  0  0
  6  7  1  0  0  0  0
  6 13  1  0  0  0  0
  7  8  2  0  0  0  0
  7 35  1  0  0  0  0
  8  9  1  0  0  0  0
  8 10  1  0  0  0  0
  9 36  1  0  0  0  0
  9 37  1  0  0  0  0
 10 11  1  0  0  0  0
 11 12  3  0  0  0  0
 13 14  1  0  0  0  0
 13 38  1  0  0  0  0
 14 15  2  0  0  0  0
 14 16  1  0  0  0  0
 16 17  1  0  0  0  0
 16 39  1  0  0  0  0
 16 40  1  0  0  0  0
 17 27  2  0  0  0  0
 17 18  1  0  0  0  0
 18 19  1  0  0  0  0
 18 21  2  0  0  0  0
 19 20  1  0  0  0  0
 20 41  1  0  0  0  0
 20 42  1  0  0  0  0
 20 43  1  0  0  0  0
 21 22  1  0  0  0  0
 21 44  1  0  0  0  0
 22 23  1  0  0  0  0
 22 26  2  0  0  0  0
 23 24  1  0  0  0  0
 23 25  2  0  0  0  0
 26 27  1  0  0  0  0
 26 28  1  0  0  0  0
 27 45  1  0  0  0  0
 28 29  1  0  0  0  0
 29 46  1  0  0  0  0
 29 47  1  0  0  0  0
 29 48  1  0  0  0  0
M  CHG  2  23   1  24  -1
M  END
$$$$
