23477
                    3D
 Schrodinger Suite 2022-3.
 43 45  0  0  1  0  0  0  0  0999 V2000
   43.7440   13.9140   16.7530 S   0  0  0  0  0  0  0  0  0  0  0  0
   43.6370   15.2360   15.6150 C   0  0  0  0  0  0  0  0  0  0  0  0
   42.7650   14.8960   14.6120 C   0  0  0  0  0  0  0  0  0  0  0  0
   42.1440   13.6040   14.8070 C   0  0  0  0  0  0  0  0  0  0  0  0
   42.5600   12.9330   15.9270 C   0  0  0  0  0  0  0  0  0  0  0  0
   44.4200   16.5270   15.8640 C   0  0  0  0  0  0  0  0  0  0  0  0
   45.2670   16.4610   16.7820 O   0  0  0  0  0  0  0  0  0  0  0  0
   44.1650   17.5230   15.1860 O   0  5  0  0  0  0  0  0  0  0  0  0
   42.1560   11.6180   16.3830 C   0  0  0  0  0  0  0  0  0  0  0  0
   40.8260   11.2180   16.1990 C   0  0  0  0  0  0  0  0  0  0  0  0
   40.4380    9.8730   16.3840 C   0  0  0  0  0  0  0  0  0  0  0  0
   41.3530    8.9600   16.9270 C   0  0  0  0  0  0  0  0  0  0  0  0
   42.6530    9.3970   17.2230 C   0  0  0  0  0  0  0  0  0  0  0  0
   43.0720   10.6930   16.9340 C   0  0  0  0  0  0  0  0  0  0  0  0
   40.8690   12.9070   13.5690 Br  0  0  0  0  0  0  0  0  0  0  0  0
   42.6220   15.6480   13.4930 O   0  0  0  0  0  0  0  0  0  0  0  0
   41.2590   16.1210   13.2390 C   0  0  0  0  0  0  0  0  0  0  0  0
   41.5030   17.5790   12.7380 C   0  0  0  0  0  0  0  0  0  0  0  0
   40.5070   18.3320   12.7900 O   0  5  0  0  0  0  0  0  0  0  0  0
   42.6220   17.8730   12.3000 O   0  0  0  0  0  0  0  0  0  0  0  0
   39.0760    9.5580   16.0460 N   0  0  0  0  0  0  0  0  0  0  0  0
   38.7190    8.1450   15.7280 C   0  0  0  0  0  0  0  0  0  0  0  0
   37.1820    8.0770   15.5500 C   0  0  0  0  0  0  0  0  0  0  0  0
   36.7510    6.6770   15.1020 C   0  0  0  0  0  0  0  0  0  0  0  0
   37.4380    6.2630   13.8980 O   0  0  0  0  0  0  0  0  0  0  0  0
   38.8790    6.2470   14.0530 C   0  0  0  0  0  0  0  0  0  0  0  0
   39.4180    7.6220   14.4460 C   0  0  0  0  0  0  0  0  0  0  0  0
   40.0610   11.9380   15.8990 H   0  0  0  0  0  0  0  0  0  0  0  0
   41.0850    7.9250   17.1250 H   0  0  0  0  0  0  0  0  0  0  0  0
   43.3480    8.6830   17.6700 H   0  0  0  0  0  0  0  0  0  0  0  0
   44.1090   10.9690   17.1280 H   0  0  0  0  0  0  0  0  0  0  0  0
   40.6260   16.0780   14.1490 H   0  0  0  0  0  0  0  0  0  0  0  0
   40.8400   15.4790   12.4380 H   0  0  0  0  0  0  0  0  0  0  0  0
   38.7170   10.1860   15.2910 H   0  0  0  0  0  0  0  0  0  0  0  0
   39.0080    7.4940   16.5960 H   0  0  0  0  0  0  0  0  0  0  0  0
   36.8490    8.8280   14.7940 H   0  0  0  0  0  0  0  0  0  0  0  0
   36.6820    8.3100   16.5220 H   0  0  0  0  0  0  0  0  0  0  0  0
   35.6830    6.6570   14.7860 H   0  0  0  0  0  0  0  0  0  0  0  0
   36.9430    5.9210   15.9000 H   0  0  0  0  0  0  0  0  0  0  0  0
   39.2230    5.9420   13.0390 H   0  0  0  0  0  0  0  0  0  0  0  0
   39.1470    5.4760   14.8140 H   0  0  0  0  0  0  0  0  0  0  0  0
   40.5170    7.5290   14.6310 H   0  0  0  0  0  0  0  0  0  0  0  0
   39.2560    8.3410   13.6110 H   0  0  0  0  0  0  0  0  0  0  0  0
  1  2  1  0  0  0  0
  1  5  1  0  0  0  0
  2  3  2  0  0  0  0
  2  6  1  0  0  0  0
  3  4  1  0  0  0  0
  3 16  1  0  0  0  0
  4  5  2  0  0  0  0
  4 15  1  0  0  0  0
  5  9  1  0  0  0  0
  6  7  2  0  0  0  0
  6  8  1  0  0  0  0
  9 10  1  0  0  0  0
  9 14  2  0  0  0  0
 10 11  2  0  0  0  0
 10 28  1  0  0  0  0
 11 12  1  0  0  0  0
 11 21  1  0  0  0  0
 12 13  2  0  0  0  0
 12 29  1  0  0  0  0
 13 14  1  0  0  0  0
 13 30  1  0  0  0  0
 14 31  1  0  0  0  0
 16 17  1  0  0  0  0
 17 18  1  0  0  0  0
 17 32  1  0  0  0  0
 17 33  1  0  0  0  0
 18 19  1  0  0  0  0
 18 20  2  0  0  0  0
 21 22  1  0  0  0  0
 21 34  1  0  0  0  0
 22 23  1  0  0  0  0
 22 27  1  0  0  0  0
 22 35  1  0  0  0  0
 23 24  1  0  0  0  0
 23 36  1  0  0  0  0
 23 37  1  0  0  0  0
 24 25  1  0  0  0  0
 24 38  1  0  0  0  0
 24 39  1  0  0  0  0
 25 26  1  0  0  0  0
 26 27  1  0  0  0  0
 26 40  1  0  0  0  0
 26 41  1  0  0  0  0
 27 42  1  0  0  0  0
 27 43  1  0  0  0  0
M  CHG  2   8  -1  19  -1
M  END
$$$$
