28
 OpenBabel02232411153D
Structure written by MMmdl.
 53 56  0  0  0  0  0  0  0  0999 V2000
    2.0360   28.7820    6.7350 C   0  0  0  0  0  0  0  0  0  0  0  0
   -1.4550   31.3580    7.9070 C   0  0  0  0  0  0  0  0  0  0  0  0
    0.1910   25.9640    9.0220 C   0  0  0  0  0  0  0  0  0  0  0  0
   -0.6910   25.2470   10.0500 C   0  0  0  0  0  0  0  0  0  0  0  0
   -0.6000   23.7270    9.7870 C   0  0  0  0  0  0  0  0  0  0  0  0
   -1.3830   22.9330   10.8420 C   0  0  0  0  0  0  0  0  0  0  0  0
   -0.9290   23.2810   12.2690 C   0  0  0  0  0  0  0  0  0  0  0  0
   -1.0320   24.7910   12.5320 C   0  0  0  0  0  0  0  0  0  0  0  0
   -0.2490   25.5960   11.4850 C   0  0  0  0  0  0  0  0  0  0  0  0
    5.6660   25.7950    5.1960 C   0  0  0  0  0  0  0  0  0  0  0  0
    5.5870   24.8830    6.2590 C   0  0  0  0  0  0  0  0  0  0  0  0
    4.7100   25.1540    7.3210 C   0  0  0  0  0  0  0  0  0  0  0  0
    3.9140   26.3020    7.3290 C   0  0  0  0  0  0  0  0  0  0  0  0
    1.3670   27.8400    7.5040 N   0  0  0  0  0  0  0  0  0  0  0  0
    0.1660   28.1640    8.0570 C   0  0  0  0  0  0  0  0  0  0  0  0
   -0.4860   27.2740    8.8160 O   0  0  0  0  0  0  0  0  0  0  0  0
   -0.3890   29.4550    7.8530 C   0  0  0  0  0  0  0  0  0  0  0  0
   -1.5430   30.0930    8.3250 N   0  0  0  0  0  0  0  0  0  0  0  0
   -0.2480   31.6040    7.1600 N   0  0  0  0  0  0  0  0  0  0  0  0
    0.4250   30.3890    7.0910 C   0  0  0  0  0  0  0  0  0  0  0  0
    1.6190   30.0790    6.4880 N   0  0  0  0  0  0  0  0  0  0  0  0
    3.2330   28.4030    6.1230 N   0  0  0  0  0  0  0  0  0  0  0  0
    3.9750   27.1970    6.2460 C   0  0  0  0  0  0  0  0  0  0  0  0
    4.8790   26.9370    5.1870 C   0  0  0  0  0  0  0  0  0  0  0  0
   -2.1670   32.1570    8.0940 H   0  0  0  0  0  0  0  0  0  0  0  0
    1.2170   26.1560    9.4050 H   0  0  0  0  0  0  0  0  0  0  0  0
    0.2010   25.4580    8.0350 H   0  0  0  0  0  0  0  0  0  0  0  0
   -1.7520   25.5760    9.9200 H   0  0  0  0  0  0  0  0  0  0  0  0
   -1.0150   23.5010    8.7790 H   0  0  0  0  0  0  0  0  0  0  0  0
    0.4710   23.4110    9.8170 H   0  0  0  0  0  0  0  0  0  0  0  0
   -2.4650   23.1710   10.7430 H   0  0  0  0  0  0  0  0  0  0  0  0
   -1.2340   21.8420   10.6720 H   0  0  0  0  0  0  0  0  0  0  0  0
   -1.5680   22.7340   13.0010 H   0  0  0  0  0  0  0  0  0  0  0  0
    0.1280   22.9560   12.4050 H   0  0  0  0  0  0  0  0  0  0  0  0
   -2.1030   25.0980   12.5230 H   0  0  0  0  0  0  0  0  0  0  0  0
   -0.6140   25.0180   13.5410 H   0  0  0  0  0  0  0  0  0  0  0  0
    0.8380   25.3710   11.6070 H   0  0  0  0  0  0  0  0  0  0  0  0
   -0.4040   26.6840   11.6670 H   0  0  0  0  0  0  0  0  0  0  0  0
    6.3470   25.6330    4.3490 H   0  0  0  0  0  0  0  0  0  0  0  0
    4.6310   24.4700    8.1780 H   0  0  0  0  0  0  0  0  0  0  0  0
    3.2470   26.4870    8.1740 H   0  0  0  0  0  0  0  0  0  0  0  0
   -0.0020   32.4910    6.6960 H   0  0  0  0  0  0  0  0  0  0  0  0
    3.6760   29.1080    5.4780 H   0  0  0  0  0  0  0  0  0  0  0  0
    4.9730   27.6340    4.3560 H   0  0  0  0  0  0  0  0  0  0  0  0
    6.5850   23.4870    6.2730 S   0  0  0  0  0  0  0  0  0  0  0  0
    7.6310   23.6630    7.2870 O   0  0  0  0  0  0  0  0  0  0  0  0
    5.7850   22.2590    6.4270 O   0  0  0  0  0  0  0  0  0  0  0  0
    7.3190   23.3710    4.7350 N   0  0  0  0  0  0  0  0  0  0  0  0
    7.1550   22.5160    4.1770 H   0  0  0  0  0  0  0  0  0  0  0  0
    8.7150   23.8560    4.5820 C   0  0  0  0  0  0  0  0  0  0  0  0
    8.9180   23.9900    3.4830 H   0  0  0  0  0  0  0  0  0  0  0  0
    8.8340   24.8590    5.0700 H   0  0  0  0  0  0  0  0  0  0  0  0
    9.4750   23.1480    5.0010 H   0  0  0  0  0  0  0  0  0  0  0  0
  1 14  2  0  0  0  0
  1 21  1  0  0  0  0
  1 22  1  0  0  0  0
  2 18  2  0  0  0  0
  2 19  1  0  0  0  0
  2 25  1  0  0  0  0
  3  4  1  0  0  0  0
  3 16  1  0  0  0  0
  3 26  1  0  0  0  0
  3 27  1  0  0  0  0
  4  5  1  0  0  0  0
  4  9  1  0  0  0  0
  4 28  1  0  0  0  0
  5  6  1  0  0  0  0
  5 29  1  0  0  0  0
  5 30  1  0  0  0  0
  6  7  1  0  0  0  0
  6 31  1  0  0  0  0
  6 32  1  0  0  0  0
  7  8  1  0  0  0  0
  7 33  1  0  0  0  0
  7 34  1  0  0  0  0
  8  9  1  0  0  0  0
  8 35  1  0  0  0  0
  8 36  1  0  0  0  0
  9 37  1  0  0  0  0
  9 38  1  0  0  0  0
 10 11  2  0  0  0  0
 10 24  1  0  0  0  0
 10 39  1  0  0  0  0
 11 12  1  0  0  0  0
 11 45  1  0  0  0  0
 12 13  2  0  0  0  0
 12 40  1  0  0  0  0
 13 23  1  0  0  0  0
 13 41  1  0  0  0  0
 14 15  1  0  0  0  0
 15 16  1  0  0  0  0
 15 17  2  0  0  0  0
 17 18  1  0  0  0  0
 17 20  1  0  0  0  0
 19 20  1  0  0  0  0
 19 42  1  0  0  0  0
 20 21  2  0  0  0  0
 22 23  1  0  0  0  0
 22 43  1  0  0  0  0
 23 24  2  0  0  0  0
 24 44  1  0  0  0  0
 45 46  2  0  0  0  0
 45 47  2  0  0  0  0
 45 48  1  0  0  0  0
 48 49  1  0  0  0  0
 48 50  1  0  0  0  0
 50 51  1  0  0  0  0
 50 52  1  0  0  0  0
 50 53  1  0  0  0  0
M  END
$$$$
