2j
                    3D
 Schrodinger Suite 2022-3.
 48 51  0  0  1  0  0  0  0  0999 V2000
   27.1940    8.8240   30.5150 C   0  0  0  0  0  0  0  0  0  0  0  0
   28.5570    9.4050   30.9130 C   0  0  0  0  0  0  0  0  0  0  0  0
   28.6280    8.0740   32.9320 C   0  0  0  0  0  0  0  0  0  0  0  0
   27.2810    7.4140   32.6110 C   0  0  0  0  0  0  0  0  0  0  0  0
   15.9590   10.5200   31.6860 C   0  0  0  0  0  0  0  0  0  0  0  0
   29.3170    8.4870   31.7320 O   0  0  0  0  0  0  0  0  0  0  0  0
   21.5200   12.5400   31.3210 C   0  0  0  0  0  0  0  0  0  0  0  0
   17.2380   11.0770   31.7400 C   0  0  0  0  0  0  0  0  0  0  0  0
   23.9970    8.3990   31.1240 C   0  0  0  0  0  0  0  0  0  0  0  0
   26.4210    8.3900   31.7810 C   0  0  0  0  0  0  0  0  0  0  0  0
   21.6060    9.7290   30.7770 C   0  0  0  0  0  0  0  0  0  0  0  0
   20.3700   10.4510   30.6710 C   0  0  0  0  0  0  0  0  0  0  0  0
   15.2260   10.7540   30.5190 C   0  0  0  0  0  0  0  0  0  0  0  0
   15.7260   11.4950   29.4480 C   0  0  0  0  0  0  0  0  0  0  0  0
   16.9980   12.0610   29.5650 C   0  0  0  0  0  0  0  0  0  0  0  0
   22.7780   10.4080   31.2260 C   0  0  0  0  0  0  0  0  0  0  0  0
   21.7470    8.3500   30.4570 C   0  0  0  0  0  0  0  0  0  0  0  0
   20.3160   11.7780   30.9480 C   0  0  0  0  0  0  0  0  0  0  0  0
   17.7740   11.8870   30.7220 C   0  0  0  0  0  0  0  0  0  0  0  0
   23.9720   12.4670   31.9610 C   0  0  0  0  0  0  0  0  0  0  0  0
   17.9760   10.8190   32.8180 F   0  0  0  0  0  0  0  0  0  0  0  0
   14.0070   10.2280   30.4160 F   0  0  0  0  0  0  0  0  0  0  0  0
   19.0750   12.6220   30.8730 C   0  0  0  0  0  0  0  0  0  0  0  0
   22.8950    7.6770   30.6140 N   0  0  0  0  0  0  0  0  0  0  0  0
   21.5930   13.7430   31.5030 O   0  0  0  0  0  0  0  0  0  0  0  0
   22.7350   11.7760   31.5010 N   0  0  0  0  0  0  0  0  0  0  0  0
   23.9730    9.7520   31.3880 N   0  0  0  0  0  0  0  0  0  0  0  0
   25.1440    7.7000   31.4210 N   0  0  0  0  0  0  0  0  0  0  0  0
   15.1520   11.6340   28.5330 H   0  0  0  0  0  0  0  0  0  0  0  0
   17.3890   12.6510   28.7290 H   0  0  0  0  0  0  0  0  0  0  0  0
   15.5680    9.9110   32.5000 H   0  0  0  0  0  0  0  0  0  0  0  0
   19.4790    9.8980   30.3550 H   0  0  0  0  0  0  0  0  0  0  0  0
   20.8870    7.7910   30.0510 H   0  0  0  0  0  0  0  0  0  0  0  0
   27.3340    7.9420   29.8500 H   0  0  0  0  0  0  0  0  0  0  0  0
   26.6190    9.6020   29.9600 H   0  0  0  0  0  0  0  0  0  0  0  0
   28.4350   10.3640   31.4660 H   0  0  0  0  0  0  0  0  0  0  0  0
   29.2230    9.5280   30.0290 H   0  0  0  0  0  0  0  0  0  0  0  0
   29.3400    7.3400   33.3750 H   0  0  0  0  0  0  0  0  0  0  0  0
   28.4900    8.9600   33.5940 H   0  0  0  0  0  0  0  0  0  0  0  0
   26.7570    7.1540   33.5630 H   0  0  0  0  0  0  0  0  0  0  0  0
   27.4510    6.4690   32.0400 H   0  0  0  0  0  0  0  0  0  0  0  0
   26.1780    9.2940   32.4050 H   0  0  0  0  0  0  0  0  0  0  0  0
   23.7330   13.5230   32.2540 H   0  0  0  0  0  0  0  0  0  0  0  0
   24.7370   12.4760   31.1380 H   0  0  0  0  0  0  0  0  0  0  0  0
   24.4080   11.9290   32.8440 H   0  0  0  0  0  0  0  0  0  0  0  0
   25.2470    6.7230   31.0810 H   0  0  0  0  0  0  0  0  0  0  0  0
   19.0120   13.2380   31.8100 H   0  0  0  0  0  0  0  0  0  0  0  0
   19.2010   13.3290   30.0030 H   0  0  0  0  0  0  0  0  0  0  0  0
  1  2  1  0  0  0  0
  1 10  1  0  0  0  0
  1 34  1  0  0  0  0
  1 35  1  0  0  0  0
  2  6  1  0  0  0  0
  2 36  1  0  0  0  0
  2 37  1  0  0  0  0
  3  4  1  0  0  0  0
  3  6  1  0  0  0  0
  3 38  1  0  0  0  0
  3 39  1  0  0  0  0
  4 10  1  0  0  0  0
  4 40  1  0  0  0  0
  4 41  1  0  0  0  0
  5  8  1  0  0  0  0
  5 13  2  0  0  0  0
  5 31  1  0  0  0  0
  7 18  1  0  0  0  0
  7 25  2  0  0  0  0
  7 26  1  0  0  0  0
  8 19  2  0  0  0  0
  8 21  1  0  0  0  0
  9 24  1  0  0  0  0
  9 27  2  0  0  0  0
  9 28  1  0  0  0  0
 10 28  1  0  0  0  0
 10 42  1  0  0  0  0
 11 12  1  0  0  0  0
 11 16  2  0  0  0  0
 11 17  1  0  0  0  0
 12 18  2  0  0  0  0
 12 32  1  0  0  0  0
 13 14  1  0  0  0  0
 13 22  1  0  0  0  0
 14 15  2  0  0  0  0
 14 29  1  0  0  0  0
 15 19  1  0  0  0  0
 15 30  1  0  0  0  0
 16 26  1  0  0  0  0
 16 27  1  0  0  0  0
 17 24  2  0  0  0  0
 17 33  1  0  0  0  0
 18 23  1  0  0  0  0
 19 23  1  0  0  0  0
 20 26  1  0  0  0  0
 20 43  1  0  0  0  0
 20 44  1  0  0  0  0
 20 45  1  0  0  0  0
 23 47  1  0  0  0  0
 23 48  1  0  0  0  0
 28 46  1  0  0  0  0
M  END
$$$$
