CAT-13k
 OpenBabel02232411143D
Structure written by MMmdl.
 45 48  0  0  1  0  0  0  0  0999 V2000
   11.5560   -2.5950    1.4840 C   0  0  0  0  0  0  0  0  0  0  0  0
   12.8910   -2.7060    0.8610 N   0  0  0  0  0  0  0  0  0  0  0  0
   14.0880   -2.5990    1.5690 C   0  0  0  0  0  0  0  0  0  0  0  0
   14.2590   -2.5840    2.9200 N   0  0  0  0  0  0  0  0  0  0  0  0
   15.1610   -2.6010    0.6810 N   0  3  0  0  0  0  0  0  0  0  0  0
   14.7110   -3.0920   -0.6840 C   0  0  2  0  0  0  0  0  0  0  0  0
   15.0630   -4.5610   -0.6900 C   0  0  0  0  0  0  0  0  0  0  0  0
   14.1060   -5.5470   -0.3830 C   0  0  0  0  0  0  0  0  0  0  0  0
   14.5170   -6.8540   -0.1380 C   0  0  0  0  0  0  0  0  0  0  0  0
   15.8810   -7.1730   -0.2600 C   0  0  0  0  0  0  0  0  0  0  0  0
   16.8140   -6.2470   -0.6050 N   0  0  0  0  0  0  0  0  0  0  0  0
   16.4130   -4.9610   -0.7770 C   0  0  0  0  0  0  0  0  0  0  0  0
   15.2330   -2.1270   -1.7270 C   0  0  0  0  0  0  0  0  0  0  0  0
   15.8360   -2.5400   -2.9160 C   0  0  0  0  0  0  0  0  0  0  0  0
   16.2840   -1.5700   -3.8220 C   0  0  0  0  0  0  0  0  0  0  0  0
   16.1430   -0.2070   -3.5580 C   0  0  0  0  0  0  0  0  0  0  0  0
   15.5210    0.2200   -2.3710 C   0  0  0  0  0  0  0  0  0  0  0  0
   15.3250    1.6560   -2.0620 C   0  0  0  0  0  0  0  0  0  0  0  0
   14.9460    2.5690   -3.0600 C   0  0  0  0  0  0  0  0  0  0  0  0
   14.6730    3.9020   -2.7330 C   0  0  0  0  0  0  0  0  0  0  0  0
   14.7590    4.3450   -1.4100 C   0  0  0  0  0  0  0  0  0  0  0  0
   15.1590    3.4330   -0.4310 C   0  0  0  0  0  0  0  0  0  0  0  0
   15.2210    3.9270    1.2210 Cl  0  0  0  0  0  0  0  0  0  0  0  0
   15.4650    2.1070   -0.7380 C   0  0  0  0  0  0  0  0  0  0  0  0
   15.0600   -0.7520   -1.4740 C   0  0  0  0  0  0  0  0  0  0  0  0
   13.1560   -2.8980   -0.5810 C   0  0  0  0  0  0  0  0  0  0  0  0
   12.2970   -2.8720   -1.4010 O   0  0  0  0  0  0  0  0  0  0  0  0
   11.1870   -1.5400    1.3910 H   0  0  0  0  0  0  0  0  0  0  0  0
   10.8510   -3.2970    0.9610 H   0  0  0  0  0  0  0  0  0  0  0  0
   11.6030   -2.8830    2.5680 H   0  0  0  0  0  0  0  0  0  0  0  0
   15.2440   -2.4510    3.2910 H   0  0  0  0  0  0  0  0  0  0  0  0
   16.1230   -2.8340    1.0360 H   0  0  0  0  0  0  0  0  0  0  0  0
   13.0410   -5.3100   -0.3030 H   0  0  0  0  0  0  0  0  0  0  0  0
   13.7850   -7.6200    0.1420 H   0  0  0  0  0  0  0  0  0  0  0  0
   16.2340   -8.2050   -0.0840 H   0  0  0  0  0  0  0  0  0  0  0  0
   17.1990   -4.2120   -0.9570 H   0  0  0  0  0  0  0  0  0  0  0  0
   15.9520   -3.6000   -3.1400 H   0  0  0  0  0  0  0  0  0  0  0  0
   16.7570   -1.8740   -4.7570 H   0  0  0  0  0  0  0  0  0  0  0  0
   16.5200    0.5240   -4.2820 H   0  0  0  0  0  0  0  0  0  0  0  0
   14.8440    2.2390   -4.0990 H   0  0  0  0  0  0  0  0  0  0  0  0
   14.3700    4.5990   -3.5240 H   0  0  0  0  0  0  0  0  0  0  0  0
   14.4970    5.3750   -1.1510 H   0  0  0  0  0  0  0  0  0  0  0  0
   15.7980    1.4190    0.0400 H   0  0  0  0  0  0  0  0  0  0  0  0
   14.5580   -0.4430   -0.5590 H   0  0  0  0  0  0  0  0  0  0  0  0
   13.5470   -2.1360    3.5470 H   0  0  0  0  0  0  0  0  0  0  0  0
  1  2  1  0  0  0  0
  1 28  1  0  0  0  0
  1 29  1  0  0  0  0
  1 30  1  0  0  0  0
  2  3  1  0  0  0  0
  2 26  1  0  0  0  0
  3  4  1  0  0  0  0
  3  5  2  0  0  0  0
  4 31  1  0  0  0  0
  4 45  1  0  0  0  0
  5  6  1  0  0  0  0
  5 32  1  0  0  0  0
  6  7  1  6  0  0  0
  6 13  1  0  0  0  0
  6 26  1  0  0  0  0
  7  8  2  0  0  0  0
  7 12  1  0  0  0  0
  8  9  1  0  0  0  0
  8 33  1  0  0  0  0
  9 10  2  0  0  0  0
  9 34  1  0  0  0  0
 10 11  1  0  0  0  0
 10 35  1  0  0  0  0
 11 12  2  0  0  0  0
 12 36  1  0  0  0  0
 13 14  2  0  0  0  0
 13 25  1  0  0  0  0
 14 15  1  0  0  0  0
 14 37  1  0  0  0  0
 15 16  2  0  0  0  0
 15 38  1  0  0  0  0
 16 17  1  0  0  0  0
 16 39  1  0  0  0  0
 17 18  1  0  0  0  0
 17 25  2  0  0  0  0
 18 19  2  0  0  0  0
 18 24  1  0  0  0  0
 19 20  1  0  0  0  0
 19 40  1  0  0  0  0
 20 21  2  0  0  0  0
 20 41  1  0  0  0  0
 21 22  1  0  0  0  0
 21 42  1  0  0  0  0
 22 23  1  0  0  0  0
 22 24  2  0  0  0  0
 24 43  1  0  0  0  0
 25 44  1  0  0  0  0
 26 27  2  0  0  0  0
M  CHG  1   5   1
M  END
$$$$
