18639-1
 OpenBabel02232411163D
Structure written by MMmdl.
 48 49  0  0  0  0  0  0  0  0999 V2000
   23.8310   12.6690   30.3310 C   0  0  0  0  0  0  0  0  0  0  0  0
   23.3820   11.2240   30.4410 C   0  0  0  0  0  0  0  0  0  0  0  0
   22.1330   11.3200   31.2400 O   0  0  0  0  0  0  0  0  0  0  0  0
   21.5070   10.1770   31.5910 C   0  0  0  0  0  0  0  0  0  0  0  0
   22.0000    8.9900   31.1620 N   0  0  0  0  0  0  0  0  0  0  0  0
   21.2790    7.8490   31.4820 C   0  0  0  0  0  0  0  0  0  0  0  0
   20.1190    7.8820   32.2490 C   0  0  0  0  0  0  0  0  0  0  0  0
   19.6210    9.1300   32.7110 C   0  0  0  0  0  0  0  0  0  0  0  0
   18.4750    9.1640   33.4640 N   0  0  0  0  0  0  0  0  0  0  0  0
   20.3200   10.3310   32.3670 C   0  0  0  0  0  0  0  0  0  0  0  0
   19.8890   11.6300   32.7110 C   0  0  0  0  0  0  0  0  0  0  0  0
   19.5830   12.7230   32.9510 N   0  0  0  0  0  0  0  0  0  0  0  0
   21.8590    6.6830   30.9290 N   0  0  0  0  0  0  0  0  0  0  0  0
   21.2610    5.4070   30.8540 C   0  0  0  0  0  0  0  0  0  0  0  0
   20.1720    5.1610   31.3290 O   0  0  0  0  0  0  0  0  0  0  0  0
   22.0740    4.3960   30.0530 C   0  0  0  0  0  0  0  0  0  0  0  0
   23.4300    4.0970   30.6210 C   0  0  0  0  0  0  0  0  0  0  0  0
   24.5450    4.9380   30.3100 C   0  0  0  0  0  0  0  0  0  0  0  0
   24.2090    5.9910   29.4700 O   0  0  0  0  0  0  0  0  0  0  0  0
   25.1920    7.0470   29.2860 C   0  0  0  0  0  0  0  0  0  0  0  0
   25.8170    4.6720   30.7900 C   0  0  0  0  0  0  0  0  0  0  0  0
   26.0220    3.5480   31.6190 C   0  0  0  0  0  0  0  0  0  0  0  0
   27.3680    3.2640   32.1250 N   0  3  0  0  0  0  0  0  0  0  0  0
   27.4830    2.4680   33.0450 O   0  5  0  0  0  0  0  0  0  0  0  0
   28.3210    3.8300   31.6030 O   0  0  0  0  0  0  0  0  0  0  0  0
   24.9330    2.7020   31.9320 C   0  0  0  0  0  0  0  0  0  0  0  0
   23.6450    2.9830   31.4170 C   0  0  0  0  0  0  0  0  0  0  0  0
   25.2580    1.6540   32.7390 O   0  0  0  0  0  0  0  0  0  0  0  0
   24.2450    0.6280   32.9590 C   0  0  0  0  0  0  0  0  0  0  0  0
   24.7600   12.7080   29.7090 H   0  0  0  0  0  0  0  0  0  0  0  0
   23.0520   13.2920   29.8310 H   0  0  0  0  0  0  0  0  0  0  0  0
   24.0510   13.1030   31.3310 H   0  0  0  0  0  0  0  0  0  0  0  0
   23.1170   10.7820   29.4550 H   0  0  0  0  0  0  0  0  0  0  0  0
   24.1070   10.5910   31.0010 H   0  0  0  0  0  0  0  0  0  0  0  0
   19.5720    6.9660   32.4840 H   0  0  0  0  0  0  0  0  0  0  0  0
   17.9730    8.2890   33.7100 H   0  0  0  0  0  0  0  0  0  0  0  0
   18.0610   10.0470   33.7630 H   0  0  0  0  0  0  0  0  0  0  0  0
   22.7810    6.8230   30.4460 H   0  0  0  0  0  0  0  0  0  0  0  0
   21.4820    3.4440   29.9850 H   0  0  0  0  0  0  0  0  0  0  0  0
   22.2020    4.8090   29.0120 H   0  0  0  0  0  0  0  0  0  0  0  0
   25.5250    7.4450   30.2680 H   0  0  0  0  0  0  0  0  0  0  0  0
   26.0340    6.6590   28.6740 H   0  0  0  0  0  0  0  0  0  0  0  0
   24.5950    7.8040   28.7270 H   0  0  0  0  0  0  0  0  0  0  0  0
   26.6710    5.3080   30.5280 H   0  0  0  0  0  0  0  0  0  0  0  0
   22.8140    2.3110   31.6460 H   0  0  0  0  0  0  0  0  0  0  0  0
   24.8130   -0.1160   33.5670 H   0  0  0  0  0  0  0  0  0  0  0  0
   23.3930    1.0470   33.5360 H   0  0  0  0  0  0  0  0  0  0  0  0
   23.9270    0.1910   31.9870 H   0  0  0  0  0  0  0  0  0  0  0  0
  1  2  1  0  0  0  0
  1 30  1  0  0  0  0
  1 31  1  0  0  0  0
  1 32  1  0  0  0  0
  2  3  1  0  0  0  0
  2 33  1  0  0  0  0
  2 34  1  0  0  0  0
  3  4  1  0  0  0  0
  4 10  2  0  0  0  0
  4  5  1  0  0  0  0
  5  6  2  0  0  0  0
  6  7  1  0  0  0  0
  6 13  1  0  0  0  0
  7  8  2  0  0  0  0
  7 35  1  0  0  0  0
  8  9  1  0  0  0  0
  8 10  1  0  0  0  0
  9 36  1  0  0  0  0
  9 37  1  0  0  0  0
 10 11  1  0  0  0  0
 11 12  3  0  0  0  0
 13 14  1  0  0  0  0
 13 38  1  0  0  0  0
 14 15  2  0  0  0  0
 14 16  1  0  0  0  0
 16 17  1  0  0  0  0
 16 39  1  0  0  0  0
 16 40  1  0  0  0  0
 17 27  2  0  0  0  0
 17 18  1  0  0  0  0
 18 19  1  0  0  0  0
 18 21  2  0  0  0  0
 19 20  1  0  0  0  0
 20 41  1  0  0  0  0
 20 42  1  0  0  0  0
 20 43  1  0  0  0  0
 21 22  1  0  0  0  0
 21 44  1  0  0  0  0
 22 23  1  0  0  0  0
 22 26  2  0  0  0  0
 23 24  1  0  0  0  0
 23 25  2  0  0  0  0
 26 27  1  0  0  0  0
 26 28  1  0  0  0  0
 27 45  1  0  0  0  0
 28 29  1  0  0  0  0
 29 46  1  0  0  0  0
 29 47  1  0  0  0  0
 29 48  1  0  0  0  0
M  CHG  2  23   1  24  -1
M  END
$$$$
