p38a_3flq
 OpenBabel02232411163D
Structure written by MMmdl.
 47 49  0  0  1  0  0  0  0  0999 V2000
   34.0540   39.1760   24.0270 C   0  0  0  0  0  0  0  0  0  0  0  0
   34.7580   37.9150   21.6740 C   0  0  0  0  0  0  0  0  0  0  0  0
   35.1880   37.2270   20.4850 C   0  0  0  0  0  0  0  0  0  0  0  0
   34.2970   37.1800   22.8060 C   0  0  0  0  0  0  0  0  0  0  0  0
   35.0890   35.8790   20.4440 C   0  0  0  0  0  0  0  0  0  0  0  0
   33.0510   39.3580   26.3920 C   0  0  1  0  0  0  0  0  0  0  0  0
   31.6550   38.8920   25.9700 C   0  0  0  0  0  0  0  0  0  0  0  0
   33.1160   39.4720   29.5850 C   0  0  0  0  0  0  0  0  0  0  0  0
   34.1750   35.7840   22.7330 N   0  0  0  0  0  0  0  0  0  0  0  0
   33.8610   38.2940   27.1510 C   0  0  0  0  0  0  0  0  0  0  0  0
   38.2560   36.9260   15.1020 F   0  0  0  0  0  0  0  0  0  0  0  0
   37.6060   36.4380   16.1560 C   0  0  0  0  0  0  0  0  0  0  0  0
   38.2340   36.4790   17.4040 C   0  0  0  0  0  0  0  0  0  0  0  0
   37.5190   36.0710   18.5360 C   0  0  0  0  0  0  0  0  0  0  0  0
   36.3120   35.9400   15.9590 C   0  0  0  0  0  0  0  0  0  0  0  0
   35.6330   35.5100   17.0960 C   0  0  0  0  0  0  0  0  0  0  0  0
   34.4150   34.9940   16.9980 F   0  0  0  0  0  0  0  0  0  0  0  0
   36.2170   35.5880   18.3770 C   0  0  0  0  0  0  0  0  0  0  0  0
   35.4630   35.0210   19.4140 O   0  0  0  0  0  0  0  0  0  0  0  0
   34.4880   35.0550   21.5300 C   0  0  0  0  0  0  0  0  0  0  0  0
   34.2500   33.8700   21.4620 O   0  0  0  0  0  0  0  0  0  0  0  0
   34.7800   39.3280   21.7960 C   0  0  0  0  0  0  0  0  0  0  0  0
   34.4380   39.9660   22.9260 N   0  0  0  0  0  0  0  0  0  0  0  0
   33.9480   37.8040   23.9810 N   0  0  0  0  0  0  0  0  0  0  0  0
   33.7150   35.0390   23.9390 C   0  0  0  0  0  0  0  0  0  0  0  0
   33.8470   39.8580   25.2160 N   0  0  0  0  0  0  0  0  0  0  0  0
   33.3750   37.9400   28.8060 S   0  0  0  0  0  0  0  0  0  0  0  0
   32.1350   37.1310   28.8440 O   0  0  0  0  0  0  0  0  0  0  0  0
   34.4760   37.2160   29.4920 O   0  0  0  0  0  0  0  0  0  0  0  0
   35.5910   37.8260   19.6630 H   0  0  0  0  0  0  0  0  0  0  0  0
   32.9500   40.2820   27.0410 H   0  0  0  0  0  0  0  0  0  0  0  0
   31.1610   39.6810   25.3550 H   0  0  0  0  0  0  0  0  0  0  0  0
   31.7090   37.9530   25.3730 H   0  0  0  0  0  0  0  0  0  0  0  0
   31.0200   38.7000   26.8650 H   0  0  0  0  0  0  0  0  0  0  0  0
   33.1190   39.3840   30.7030 H   0  0  0  0  0  0  0  0  0  0  0  0
   33.9190   40.2160   29.3330 H   0  0  0  0  0  0  0  0  0  0  0  0
   32.1440   39.9550   29.3170 H   0  0  0  0  0  0  0  0  0  0  0  0
   33.8530   37.3470   26.5390 H   0  0  0  0  0  0  0  0  0  0  0  0
   34.9330   38.6460   27.1550 H   0  0  0  0  0  0  0  0  0  0  0  0
   39.2570   36.8520   17.5020 H   0  0  0  0  0  0  0  0  0  0  0  0
   37.9750   36.1540   19.5250 H   0  0  0  0  0  0  0  0  0  0  0  0
   35.8530   35.9160   14.9670 H   0  0  0  0  0  0  0  0  0  0  0  0
   35.0730   39.9520   20.9360 H   0  0  0  0  0  0  0  0  0  0  0  0
   33.6530   33.9420   23.7180 H   0  0  0  0  0  0  0  0  0  0  0  0
   34.4360   35.2080   24.7840 H   0  0  0  0  0  0  0  0  0  0  0  0
   32.7030   35.4120   24.2570 H   0  0  0  0  0  0  0  0  0  0  0  0
   33.8560   40.9000   25.1680 H   0  0  0  0  0  0  0  0  0  0  0  0
  1 23  2  0  0  0  0
  1 24  1  0  0  0  0
  1 26  1  0  0  0  0
  2  3  1  0  0  0  0
  2  4  1  0  0  0  0
  2 22  2  0  0  0  0
  3  5  2  0  0  0  0
  3 30  1  0  0  0  0
  4  9  1  0  0  0  0
  4 24  2  0  0  0  0
  5 19  1  0  0  0  0
  5 20  1  0  0  0  0
  6  7  1  0  0  0  0
  6 10  1  0  0  0  0
  6 26  1  0  0  0  0
  6 31  1  6  0  0  0
  7 32  1  0  0  0  0
  7 33  1  0  0  0  0
  7 34  1  0  0  0  0
  8 27  1  0  0  0  0
  8 35  1  0  0  0  0
  8 36  1  0  0  0  0
  8 37  1  0  0  0  0
  9 20  1  0  0  0  0
  9 25  1  0  0  0  0
 10 27  1  0  0  0  0
 10 38  1  0  0  0  0
 10 39  1  0  0  0  0
 11 12  1  0  0  0  0
 12 13  2  0  0  0  0
 12 15  1  0  0  0  0
 13 14  1  0  0  0  0
 13 40  1  0  0  0  0
 14 18  2  0  0  0  0
 14 41  1  0  0  0  0
 15 16  2  0  0  0  0
 15 42  1  0  0  0  0
 16 17  1  0  0  0  0
 16 18  1  0  0  0  0
 18 19  1  0  0  0  0
 20 21  2  0  0  0  0
 22 23  1  0  0  0  0
 22 43  1  0  0  0  0
 25 44  1  0  0  0  0
 25 45  1  0  0  0  0
 25 46  1  0  0  0  0
 26 47  1  0  0  0  0
 27 28  2  0  0  0  0
 27 29  2  0  0  0  0
M  END
$$$$
