p38a_2p
 OpenBabel02232411163D
Structure written by MMmdl.
 58 61  0  0  0  0  0  0  0  0999 V2000
   36.3440   35.8160   16.0370 C   0  0  0  0  0  0  0  0  0  0  0  0
   34.6460   35.0550   21.7100 C   0  0  0  0  0  0  0  0  0  0  0  0
   35.5390   35.4360   17.1070 C   0  0  0  0  0  0  0  0  0  0  0  0
   34.3720   39.1830   24.2090 C   0  0  0  0  0  0  0  0  0  0  0  0
   34.7180   37.9240   21.7840 C   0  0  0  0  0  0  0  0  0  0  0  0
   34.9230   37.2500   20.5340 C   0  0  0  0  0  0  0  0  0  0  0  0
   37.6210   36.2980   16.3560 C   0  0  0  0  0  0  0  0  0  0  0  0
   38.1190   36.3590   17.6600 C   0  0  0  0  0  0  0  0  0  0  0  0
   37.2810   35.9940   18.7200 C   0  0  0  0  0  0  0  0  0  0  0  0
   34.6120   37.1790   22.9970 C   0  0  0  0  0  0  0  0  0  0  0  0
   34.6360   39.3420   21.8830 C   0  0  0  0  0  0  0  0  0  0  0  0
   34.9160   35.8950   20.5170 C   0  0  0  0  0  0  0  0  0  0  0  0
   35.9860   35.5510   18.4410 C   0  0  0  0  0  0  0  0  0  0  0  0
   34.3260   34.9440   16.8950 F   0  0  0  0  0  0  0  0  0  0  0  0
   35.0780   35.0790   19.3940 O   0  0  0  0  0  0  0  0  0  0  0  0
   34.4640   39.9810   23.0440 N   0  0  0  0  0  0  0  0  0  0  0  0
   34.4440   33.8620   21.6980 O   0  0  0  0  0  0  0  0  0  0  0  0
   34.6530   35.7730   22.9650 N   0  0  0  0  0  0  0  0  0  0  0  0
   34.4570   37.8010   24.2090 N   0  0  0  0  0  0  0  0  0  0  0  0
   34.1500   39.8370   25.3890 N   0  0  0  0  0  0  0  0  0  0  0  0
   35.9890   35.7720   15.0040 H   0  0  0  0  0  0  0  0  0  0  0  0
   35.0940   37.8540   19.6380 H   0  0  0  0  0  0  0  0  0  0  0  0
   39.1340   36.7170   17.8520 H   0  0  0  0  0  0  0  0  0  0  0  0
   37.6330   36.0870   19.7490 H   0  0  0  0  0  0  0  0  0  0  0  0
   34.7110   39.9580   20.9690 H   0  0  0  0  0  0  0  0  0  0  0  0
   34.1000   40.8760   25.4000 H   0  0  0  0  0  0  0  0  0  0  0  0
   38.3830   36.7510   15.3630 F   0  0  0  0  0  0  0  0  0  0  0  0
   32.9200   39.2140   28.9510 C   0  0  0  0  0  0  0  0  0  0  0  0
   32.9120   39.7580   27.5170 C   0  0  0  0  0  0  0  0  0  0  0  0
   34.0910   39.1600   26.7200 C   0  0  0  0  0  0  0  0  0  0  0  0
   35.4210   39.3870   27.4690 C   0  0  0  0  0  0  0  0  0  0  0  0
   35.3100   38.8600   28.9050 C   0  0  0  0  0  0  0  0  0  0  0  0
   34.1890   39.4430   29.6050 O   0  0  0  0  0  0  0  0  0  0  0  0
   32.7000   38.1220   28.9630 H   0  0  0  0  0  0  0  0  0  0  0  0
   32.2150   39.7880   29.5980 H   0  0  0  0  0  0  0  0  0  0  0  0
   32.9970   40.8720   27.5380 H   0  0  0  0  0  0  0  0  0  0  0  0
   31.9490   39.4900   27.0210 H   0  0  0  0  0  0  0  0  0  0  0  0
   33.9260   38.0560   26.5670 H   0  0  0  0  0  0  0  0  0  0  0  0
   36.2410   38.8470   26.9390 H   0  0  0  0  0  0  0  0  0  0  0  0
   35.6670   40.4760   27.4810 H   0  0  0  0  0  0  0  0  0  0  0  0
   35.2050   37.7500   28.9110 H   0  0  0  0  0  0  0  0  0  0  0  0
   36.1770   39.1930   29.5220 H   0  0  0  0  0  0  0  0  0  0  0  0
   34.7670   34.9900   24.2380 C   0  0  0  0  0  0  0  0  0  0  0  0
   35.2480   34.0050   23.9900 H   0  0  0  0  0  0  0  0  0  0  0  0
   35.4300   35.5580   24.9470 H   0  0  0  0  0  0  0  0  0  0  0  0
   33.4040   34.7330   24.9190 C   0  0  0  0  0  0  0  0  0  0  0  0
   32.9870   35.7080   25.2780 H   0  0  0  0  0  0  0  0  0  0  0  0
   32.6970   34.2860   24.1780 H   0  0  0  0  0  0  0  0  0  0  0  0
   33.6140   33.7720   26.0970 C   0  0  0  0  0  0  0  0  0  0  0  0
   34.4280   34.1870   26.7550 H   0  0  0  0  0  0  0  0  0  0  0  0
   33.9980   32.7950   25.6940 H   0  0  0  0  0  0  0  0  0  0  0  0
   32.1760   33.4730   27.0660 S   0  0  0  0  0  0  0  0  0  0  0  0
   31.7590   34.6780   27.8190 O   0  0  0  0  0  0  0  0  0  0  0  0
   32.4410   32.3510   28.0090 O   0  0  0  0  0  0  0  0  0  0  0  0
   30.9310   33.0010   25.9460 C   0  0  0  0  0  0  0  0  0  0  0  0
   31.3000   32.2330   25.2170 H   0  0  0  0  0  0  0  0  0  0  0  0
   30.0430   32.5550   26.4620 H   0  0  0  0  0  0  0  0  0  0  0  0
   30.5540   33.8640   25.3390 H   0  0  0  0  0  0  0  0  0  0  0  0
  1  3  2  0  0  0  0
  1  7  1  0  0  0  0
  1 21  1  0  0  0  0
  2 12  1  0  0  0  0
  2 17  2  0  0  0  0
  2 18  1  0  0  0  0
  3 13  1  0  0  0  0
  3 14  1  0  0  0  0
  4 16  2  0  0  0  0
  4 19  1  0  0  0  0
  4 20  1  0  0  0  0
  5  6  1  0  0  0  0
  5 10  1  0  0  0  0
  5 11  2  0  0  0  0
  6 12  2  0  0  0  0
  6 22  1  0  0  0  0
  7  8  2  0  0  0  0
  7 27  1  0  0  0  0
  8  9  1  0  0  0  0
  8 23  1  0  0  0  0
  9 13  2  0  0  0  0
  9 24  1  0  0  0  0
 10 18  1  0  0  0  0
 10 19  2  0  0  0  0
 11 16  1  0  0  0  0
 11 25  1  0  0  0  0
 12 15  1  0  0  0  0
 13 15  1  0  0  0  0
 18 43  1  0  0  0  0
 20 26  1  0  0  0  0
 20 30  1  0  0  0  0
 28 29  1  0  0  0  0
 28 33  1  0  0  0  0
 28 34  1  0  0  0  0
 28 35  1  0  0  0  0
 29 30  1  0  0  0  0
 29 36  1  0  0  0  0
 29 37  1  0  0  0  0
 30 31  1  0  0  0  0
 30 38  1  0  0  0  0
 31 32  1  0  0  0  0
 31 39  1  0  0  0  0
 31 40  1  0  0  0  0
 32 33  1  0  0  0  0
 32 41  1  0  0  0  0
 32 42  1  0  0  0  0
 43 44  1  0  0  0  0
 43 45  1  0  0  0  0
 43 46  1  0  0  0  0
 46 47  1  0  0  0  0
 46 48  1  0  0  0  0
 46 49  1  0  0  0  0
 49 50  1  0  0  0  0
 49 51  1  0  0  0  0
 49 52  1  0  0  0  0
 52 53  2  0  0  0  0
 52 54  2  0  0  0  0
 52 55  1  0  0  0  0
 55 56  1  0  0  0  0
 55 57  1  0  0  0  0
 55 58  1  0  0  0  0
M  END
$$$$
