CAT-17a
 OpenBabel02232411143D
Structure written by MMmdl.
 43 46  0  0  1  0  0  0  0  0999 V2000
   11.6710   -2.6530    1.3310 C   0  0  0  0  0  0  0  0  0  0  0  0
   12.9810   -2.4530    0.6810 N   0  0  0  0  0  0  0  0  0  0  0  0
   14.1740   -2.4430    1.4040 C   0  0  0  0  0  0  0  0  0  0  0  0
   14.3060   -2.5350    2.7590 N   0  0  0  0  0  0  0  0  0  0  0  0
   15.2620   -2.3680    0.5290 N   0  3  0  0  0  0  0  0  0  0  0  0
   14.8170   -2.6920   -0.8790 C   0  0  1  0  0  0  0  0  0  0  0  0
   15.4200   -1.6700   -1.8160 C   0  0  0  0  0  0  0  0  0  0  0  0
   16.3150   -2.0450   -2.8250 C   0  0  0  0  0  0  0  0  0  0  0  0
   16.8260   -1.0710   -3.6880 C   0  0  0  0  0  0  0  0  0  0  0  0
   16.4800    0.2730   -3.5300 C   0  0  0  0  0  0  0  0  0  0  0  0
   15.6280    0.6640   -2.4840 C   0  0  0  0  0  0  0  0  0  0  0  0
   15.3110    2.0880   -2.2310 C   0  0  0  0  0  0  0  0  0  0  0  0
   14.9560    2.9520   -3.2790 C   0  0  0  0  0  0  0  0  0  0  0  0
   14.6020    4.2710   -2.9800 C   0  0  0  0  0  0  0  0  0  0  0  0
   14.1780    5.3280   -4.2620 Cl  0  0  0  0  0  0  0  0  0  0  0  0
   14.5620    4.7530   -1.6680 C   0  0  0  0  0  0  0  0  0  0  0  0
   14.9380    3.8780   -0.6470 C   0  0  0  0  0  0  0  0  0  0  0  0
   14.8540    4.4000    0.9920 Cl  0  0  0  0  0  0  0  0  0  0  0  0
   15.3380    2.5680   -0.9100 C   0  0  0  0  0  0  0  0  0  0  0  0
   15.0800   -0.3190   -1.6470 C   0  0  0  0  0  0  0  0  0  0  0  0
   15.0400   -4.1500   -1.2480 C   0  0  0  0  0  0  0  0  0  0  0  0
   16.2390   -4.9160   -0.7160 C   0  0  0  0  0  0  0  0  0  0  0  0
   14.8540   -5.2540   -0.2120 C   0  0  0  0  0  0  0  0  0  0  0  0
   13.2610   -2.5310   -0.7690 C   0  0  0  0  0  0  0  0  0  0  0  0
   12.4000   -2.4760   -1.5850 O   0  0  0  0  0  0  0  0  0  0  0  0
   11.5730   -3.7200    1.6730 H   0  0  0  0  0  0  0  0  0  0  0  0
   11.5870   -1.9770    2.2180 H   0  0  0  0  0  0  0  0  0  0  0  0
   10.8510   -2.4120    0.6030 H   0  0  0  0  0  0  0  0  0  0  0  0
   13.5740   -2.1380    3.4000 H   0  0  0  0  0  0  0  0  0  0  0  0
   16.2040   -2.6820    0.8860 H   0  0  0  0  0  0  0  0  0  0  0  0
   16.6170   -3.0880   -2.9360 H   0  0  0  0  0  0  0  0  0  0  0  0
   17.5120   -1.3630   -4.4890 H   0  0  0  0  0  0  0  0  0  0  0  0
   16.8780    1.0180   -4.2240 H   0  0  0  0  0  0  0  0  0  0  0  0
   14.9420    2.5910   -4.3130 H   0  0  0  0  0  0  0  0  0  0  0  0
   14.2230    5.7700   -1.4480 H   0  0  0  0  0  0  0  0  0  0  0  0
   15.6590    1.9100   -0.1000 H   0  0  0  0  0  0  0  0  0  0  0  0
   14.3900   -0.0360   -0.8520 H   0  0  0  0  0  0  0  0  0  0  0  0
   14.7130   -4.3650   -2.2810 H   0  0  0  0  0  0  0  0  0  0  0  0
   16.7700   -5.5920   -1.3840 H   0  0  0  0  0  0  0  0  0  0  0  0
   16.9430   -4.4120   -0.0520 H   0  0  0  0  0  0  0  0  0  0  0  0
   14.5900   -4.9910    0.8200 H   0  0  0  0  0  0  0  0  0  0  0  0
   14.3690   -6.1860   -0.5300 H   0  0  0  0  0  0  0  0  0  0  0  0
   15.2800   -2.4360    3.1660 H   0  0  0  0  0  0  0  0  0  0  0  0
  1  2  1  0  0  0  0
  1 26  1  0  0  0  0
  1 27  1  0  0  0  0
  1 28  1  0  0  0  0
  2  3  1  0  0  0  0
  2 24  1  0  0  0  0
  3  4  1  0  0  0  0
  3  5  2  0  0  0  0
  4 29  1  0  0  0  0
  4 43  1  0  0  0  0
  5  6  1  0  0  0  0
  5 30  1  0  0  0  0
  6  7  1  6  0  0  0
  6 21  1  0  0  0  0
  6 24  1  0  0  0  0
  7  8  2  0  0  0  0
  7 20  1  0  0  0  0
  8  9  1  0  0  0  0
  8 31  1  0  0  0  0
  9 10  2  0  0  0  0
  9 32  1  0  0  0  0
 10 11  1  0  0  0  0
 10 33  1  0  0  0  0
 11 12  1  0  0  0  0
 11 20  2  0  0  0  0
 12 13  2  0  0  0  0
 12 19  1  0  0  0  0
 13 14  1  0  0  0  0
 13 34  1  0  0  0  0
 14 15  1  0  0  0  0
 14 16  2  0  0  0  0
 16 17  1  0  0  0  0
 16 35  1  0  0  0  0
 17 18  1  0  0  0  0
 17 19  2  0  0  0  0
 19 36  1  0  0  0  0
 20 37  1  0  0  0  0
 21 22  1  0  0  0  0
 21 23  1  0  0  0  0
 21 38  1  0  0  0  0
 22 23  1  0  0  0  0
 22 39  1  0  0  0  0
 22 40  1  0  0  0  0
 23 41  1  0  0  0  0
 23 42  1  0  0  0  0
 24 25  2  0  0  0  0
M  CHG  1   5   1
M  END
$$$$
