18633-1
 OpenBabel02232411163D
Structure written by MMmdl.
 42 43  0  0  0  0  0  0  0  0999 V2000
   23.8690   12.6150   30.3430 C   0  0  0  0  0  0  0  0  0  0  0  0
   23.4330   11.1660   30.4430 C   0  0  0  0  0  0  0  0  0  0  0  0
   22.1830   11.2480   31.2430 O   0  0  0  0  0  0  0  0  0  0  0  0
   21.5530   10.1030   31.5760 C   0  0  0  0  0  0  0  0  0  0  0  0
   22.0390    8.9190   31.1300 N   0  0  0  0  0  0  0  0  0  0  0  0
   21.3220    7.7730   31.4460 C   0  0  0  0  0  0  0  0  0  0  0  0
   20.1680    7.7990   32.2220 C   0  0  0  0  0  0  0  0  0  0  0  0
   19.6690    9.0450   32.6910 C   0  0  0  0  0  0  0  0  0  0  0  0
   18.5200    9.0820   33.4390 N   0  0  0  0  0  0  0  0  0  0  0  0
   20.3690   10.2480   32.3580 C   0  0  0  0  0  0  0  0  0  0  0  0
   19.9420   11.5430   32.7210 C   0  0  0  0  0  0  0  0  0  0  0  0
   19.6410   12.6340   32.9770 N   0  0  0  0  0  0  0  0  0  0  0  0
   21.9030    6.6190   30.8690 N   0  0  0  0  0  0  0  0  0  0  0  0
   21.3690    5.3040   30.8540 C   0  0  0  0  0  0  0  0  0  0  0  0
   20.3290    5.0220   31.4100 O   0  0  0  0  0  0  0  0  0  0  0  0
   22.1960    4.3270   30.0310 C   0  0  0  0  0  0  0  0  0  0  0  0
   23.4520    3.9050   30.7420 C   0  0  0  0  0  0  0  0  0  0  0  0
   23.4610    2.7640   31.5520 C   0  0  0  0  0  0  0  0  0  0  0  0
   24.6210    2.3720   32.2300 C   0  0  0  0  0  0  0  0  0  0  0  0
   25.7850    3.1320   32.0700 C   0  0  0  0  0  0  0  0  0  0  0  0
   25.8060    4.2730   31.2380 C   0  0  0  0  0  0  0  0  0  0  0  0
   24.6410    4.6450   30.5800 C   0  0  0  0  0  0  0  0  0  0  0  0
   27.0060    2.8740   32.6500 O   0  0  0  0  0  0  0  0  0  0  0  0
   27.1070    1.7480   33.5590 C   0  0  0  0  0  0  0  0  0  0  0  0
   24.1220   13.0340   31.3430 H   0  0  0  0  0  0  0  0  0  0  0  0
   23.0700   13.2420   29.8820 H   0  0  0  0  0  0  0  0  0  0  0  0
   24.7760   12.6720   29.6910 H   0  0  0  0  0  0  0  0  0  0  0  0
   23.1690   10.7310   29.4530 H   0  0  0  0  0  0  0  0  0  0  0  0
   24.1610   10.5350   30.9990 H   0  0  0  0  0  0  0  0  0  0  0  0
   19.6270    6.8810   32.4600 H   0  0  0  0  0  0  0  0  0  0  0  0
   18.0220    8.2110   33.7060 H   0  0  0  0  0  0  0  0  0  0  0  0
   18.1190    9.9670   33.7520 H   0  0  0  0  0  0  0  0  0  0  0  0
   22.7990    6.7870   30.3680 H   0  0  0  0  0  0  0  0  0  0  0  0
   21.5640    3.4250   29.8180 H   0  0  0  0  0  0  0  0  0  0  0  0
   22.4590    4.7990   29.0470 H   0  0  0  0  0  0  0  0  0  0  0  0
   22.5620    2.1530   31.6650 H   0  0  0  0  0  0  0  0  0  0  0  0
   24.5940    1.4800   32.8580 H   0  0  0  0  0  0  0  0  0  0  0  0
   26.7260    4.8480   31.1100 H   0  0  0  0  0  0  0  0  0  0  0  0
   24.6670    5.5190   29.9210 H   0  0  0  0  0  0  0  0  0  0  0  0
   28.1780    1.8010   33.8670 H   0  0  0  0  0  0  0  0  0  0  0  0
   26.8930    0.7990   33.0210 H   0  0  0  0  0  0  0  0  0  0  0  0
   26.4310    1.8940   34.4290 H   0  0  0  0  0  0  0  0  0  0  0  0
  1  2  1  0  0  0  0
  1 25  1  0  0  0  0
  1 26  1  0  0  0  0
  1 27  1  0  0  0  0
  2  3  1  0  0  0  0
  2 28  1  0  0  0  0
  2 29  1  0  0  0  0
  3  4  1  0  0  0  0
  4 10  2  0  0  0  0
  4  5  1  0  0  0  0
  5  6  2  0  0  0  0
  6  7  1  0  0  0  0
  6 13  1  0  0  0  0
  7  8  2  0  0  0  0
  7 30  1  0  0  0  0
  8  9  1  0  0  0  0
  8 10  1  0  0  0  0
  9 31  1  0  0  0  0
  9 32  1  0  0  0  0
 10 11  1  0  0  0  0
 11 12  3  0  0  0  0
 13 14  1  0  0  0  0
 13 33  1  0  0  0  0
 14 15  2  0  0  0  0
 14 16  1  0  0  0  0
 16 17  1  0  0  0  0
 16 34  1  0  0  0  0
 16 35  1  0  0  0  0
 17 22  2  0  0  0  0
 17 18  1  0  0  0  0
 18 19  2  0  0  0  0
 18 36  1  0  0  0  0
 19 20  1  0  0  0  0
 19 37  1  0  0  0  0
 20 21  2  0  0  0  0
 20 23  1  0  0  0  0
 21 22  1  0  0  0  0
 21 38  1  0  0  0  0
 22 39  1  0  0  0  0
 23 24  1  0  0  0  0
 24 40  1  0  0  0  0
 24 41  1  0  0  0  0
 24 42  1  0  0  0  0
M  END
$$$$
