20
 OpenBabel04222415263D
Structure written by MMmdl.
 49 52  0  0  0  0  0  0  0  0999 V2000
    1.9940   28.7960    6.8090 C   0  0  0  0  0  0  0  0  0  0  0  0
   -1.5120   31.3850    7.9200 C   0  0  0  0  0  0  0  0  0  0  0  0
    0.0940   25.9680    9.0130 C   0  0  0  0  0  0  0  0  0  0  0  0
   -0.7680   25.2310   10.0440 C   0  0  0  0  0  0  0  0  0  0  0  0
   -0.6210   23.7150    9.7850 C   0  0  0  0  0  0  0  0  0  0  0  0
   -1.3870   22.8980   10.8340 C   0  0  0  0  0  0  0  0  0  0  0  0
   -0.9610   23.2640   12.2650 C   0  0  0  0  0  0  0  0  0  0  0  0
   -1.1010   24.7720   12.5250 C   0  0  0  0  0  0  0  0  0  0  0  0
   -0.3390   25.5970   11.4780 C   0  0  0  0  0  0  0  0  0  0  0  0
    5.4610   25.5320    5.6290 C   0  0  0  0  0  0  0  0  0  0  0  0
    5.3640   24.7930    6.8150 C   0  0  0  0  0  0  0  0  0  0  0  0
    4.5530   25.2570    7.8540 C   0  0  0  0  0  0  0  0  0  0  0  0
    3.8300   26.4450    7.7280 C   0  0  0  0  0  0  0  0  0  0  0  0
    1.2870   27.8520    7.5500 N   0  0  0  0  0  0  0  0  0  0  0  0
    0.0830   28.1780    8.0820 C   0  0  0  0  0  0  0  0  0  0  0  0
   -0.5830   27.2790    8.8250 O   0  0  0  0  0  0  0  0  0  0  0  0
   -0.4600   29.4740    7.8770 C   0  0  0  0  0  0  0  0  0  0  0  0
   -1.6120   30.1210    8.3390 N   0  0  0  0  0  0  0  0  0  0  0  0
   -0.2970   31.6190    7.1820 N   0  0  0  0  0  0  0  0  0  0  0  0
    0.3700   30.3990    7.1210 C   0  0  0  0  0  0  0  0  0  0  0  0
    1.5710   30.0890    6.5350 N   0  0  0  0  0  0  0  0  0  0  0  0
    3.2310   28.4170    6.3090 N   0  0  0  0  0  0  0  0  0  0  0  0
    3.9140   27.1730    6.5300 C   0  0  0  0  0  0  0  0  0  0  0  0
    4.7500   26.7290    5.4860 C   0  0  0  0  0  0  0  0  0  0  0  0
   -2.2180   32.1900    8.1010 H   0  0  0  0  0  0  0  0  0  0  0  0
    1.1260   26.1520    9.3870 H   0  0  0  0  0  0  0  0  0  0  0  0
    0.0920   25.4730    8.0200 H   0  0  0  0  0  0  0  0  0  0  0  0
   -1.8390   25.5230    9.9130 H   0  0  0  0  0  0  0  0  0  0  0  0
   -1.0160   23.4730    8.7730 H   0  0  0  0  0  0  0  0  0  0  0  0
    0.4600   23.4350    9.8240 H   0  0  0  0  0  0  0  0  0  0  0  0
   -2.4750   23.0990   10.7230 H   0  0  0  0  0  0  0  0  0  0  0  0
   -1.2000   21.8110   10.6680 H   0  0  0  0  0  0  0  0  0  0  0  0
   -1.5960   22.7040   12.9900 H   0  0  0  0  0  0  0  0  0  0  0  0
    0.1010   22.9620   12.4190 H   0  0  0  0  0  0  0  0  0  0  0  0
   -2.1800   25.0520   12.5150 H   0  0  0  0  0  0  0  0  0  0  0  0
   -0.6900   25.0100   13.5350 H   0  0  0  0  0  0  0  0  0  0  0  0
    0.7550   25.4040   11.6030 H   0  0  0  0  0  0  0  0  0  0  0  0
   -0.5250   26.6800   11.6580 H   0  0  0  0  0  0  0  0  0  0  0  0
    5.9180   23.8580    6.9230 H   0  0  0  0  0  0  0  0  0  0  0  0
    4.4730   24.6820    8.7810 H   0  0  0  0  0  0  0  0  0  0  0  0
    3.2070   26.7820    8.5580 H   0  0  0  0  0  0  0  0  0  0  0  0
   -0.0410   32.5020    6.7170 H   0  0  0  0  0  0  0  0  0  0  0  0
    3.7180   29.0670    5.6480 H   0  0  0  0  0  0  0  0  0  0  0  0
    4.8460   27.3160    4.5710 H   0  0  0  0  0  0  0  0  0  0  0  0
    6.3160   25.0660    4.4770 C   0  0  0  0  0  0  0  0  0  0  0  0
    7.2020   25.7360    4.3430 H   0  0  0  0  0  0  0  0  0  0  0  0
    5.7180   25.0090    3.5340 H   0  0  0  0  0  0  0  0  0  0  0  0
    6.7930   23.7390    4.8030 O   0  0  0  0  0  0  0  0  0  0  0  0
    7.3220   23.4020    4.0300 H   0  0  0  0  0  0  0  0  0  0  0  0
  1 14  2  0  0  0  0
  1 21  1  0  0  0  0
  1 22  1  0  0  0  0
  2 18  2  0  0  0  0
  2 19  1  0  0  0  0
  2 25  1  0  0  0  0
  3  4  1  0  0  0  0
  3 16  1  0  0  0  0
  3 26  1  0  0  0  0
  3 27  1  0  0  0  0
  4  5  1  0  0  0  0
  4  9  1  0  0  0  0
  4 28  1  0  0  0  0
  5  6  1  0  0  0  0
  5 29  1  0  0  0  0
  5 30  1  0  0  0  0
  6  7  1  0  0  0  0
  6 31  1  0  0  0  0
  6 32  1  0  0  0  0
  7  8  1  0  0  0  0
  7 33  1  0  0  0  0
  7 34  1  0  0  0  0
  8  9  1  0  0  0  0
  8 35  1  0  0  0  0
  8 36  1  0  0  0  0
  9 37  1  0  0  0  0
  9 38  1  0  0  0  0
 10 11  2  0  0  0  0
 10 24  1  0  0  0  0
 10 45  1  0  0  0  0
 11 12  1  0  0  0  0
 11 39  1  0  0  0  0
 12 13  2  0  0  0  0
 12 40  1  0  0  0  0
 13 23  1  0  0  0  0
 13 41  1  0  0  0  0
 14 15  1  0  0  0  0
 15 16  1  0  0  0  0
 15 17  2  0  0  0  0
 17 18  1  0  0  0  0
 17 20  1  0  0  0  0
 19 20  1  0  0  0  0
 19 42  1  0  0  0  0
 20 21  2  0  0  0  0
 22 23  1  0  0  0  0
 22 43  1  0  0  0  0
 23 24  2  0  0  0  0
 24 44  1  0  0  0  0
 45 46  1  0  0  0  0
 45 47  1  0  0  0  0
 45 48  1  0  0  0  0
 48 49  1  0  0  0  0
M  END
$$$$
