p38a_2aa
 OpenBabel02232411163D
Structure written by MMmdl.
 43 45  0  0  0  0  0  0  0  0999 V2000
   38.2770   36.5260   17.1590 C   0  0  0  0  0  0  0  0  0  0  0  0
   34.5830   35.0900   21.2210 C   0  0  0  0  0  0  0  0  0  0  0  0
   37.4800   36.0620   18.2010 C   0  0  0  0  0  0  0  0  0  0  0  0
   34.2090   39.1970   23.7390 C   0  0  0  0  0  0  0  0  0  0  0  0
   33.6900   39.1910   26.2100 C   0  0  0  0  0  0  0  0  0  0  0  0
   34.6850   37.9690   21.3290 C   0  0  0  0  0  0  0  0  0  0  0  0
   35.0290   37.2950   20.1070 C   0  0  0  0  0  0  0  0  0  0  0  0
   37.6470   36.6870   15.9170 C   0  0  0  0  0  0  0  0  0  0  0  0
   36.3030   36.3810   15.6900 C   0  0  0  0  0  0  0  0  0  0  0  0
   35.5260   35.9020   16.7500 C   0  0  0  0  0  0  0  0  0  0  0  0
   34.3960   37.2110   22.5030 C   0  0  0  0  0  0  0  0  0  0  0  0
   34.6360   39.3840   21.4440 C   0  0  0  0  0  0  0  0  0  0  0  0
   35.0210   35.9430   20.0840 C   0  0  0  0  0  0  0  0  0  0  0  0
   36.1210   35.7360   18.0040 C   0  0  0  0  0  0  0  0  0  0  0  0
   34.0230   35.0490   23.6850 C   0  0  0  0  0  0  0  0  0  0  0  0
   37.9940   35.9260   19.4170 F   0  0  0  0  0  0  0  0  0  0  0  0
   35.3800   35.1160   19.0210 O   0  0  0  0  0  0  0  0  0  0  0  0
   34.4010   40.0100   22.6080 N   0  0  0  0  0  0  0  0  0  0  0  0
   34.4240   33.8900   21.1840 O   0  0  0  0  0  0  0  0  0  0  0  0
   34.3430   35.8110   22.4450 N   0  0  0  0  0  0  0  0  0  0  0  0
   34.1540   37.8230   23.7120 N   0  0  0  0  0  0  0  0  0  0  0  0
   34.1350   39.8580   24.9550 N   0  0  0  0  0  0  0  0  0  0  0  0
   39.3280   36.7900   17.3100 H   0  0  0  0  0  0  0  0  0  0  0  0
   34.4670   39.8440   27.3800 C   0  0  0  0  0  0  0  0  0  0  0  0
   35.3020   37.9040   19.2420 H   0  0  0  0  0  0  0  0  0  0  0  0
   35.8470   36.5270   14.7090 H   0  0  0  0  0  0  0  0  0  0  0  0
   34.4660   35.6800   16.5930 H   0  0  0  0  0  0  0  0  0  0  0  0
   34.7850   40.0160   20.5530 H   0  0  0  0  0  0  0  0  0  0  0  0
   34.7260   35.3440   24.5110 H   0  0  0  0  0  0  0  0  0  0  0  0
   32.9730   35.2790   24.0140 H   0  0  0  0  0  0  0  0  0  0  0  0
   34.1180   33.9470   23.5000 H   0  0  0  0  0  0  0  0  0  0  0  0
   33.9780   40.8840   24.9380 H   0  0  0  0  0  0  0  0  0  0  0  0
   38.3560   37.1990   14.9150 F   0  0  0  0  0  0  0  0  0  0  0  0
   32.1390   39.2880   26.3460 C   0  0  0  0  0  0  0  0  0  0  0  0
   31.7180   39.6560   27.6570 O   0  0  0  0  0  0  0  0  0  0  0  0
   32.1830   40.5130   27.8990 H   0  0  0  0  0  0  0  0  0  0  0  0
   31.7290   40.0390   25.6310 H   0  0  0  0  0  0  0  0  0  0  0  0
   31.6760   38.2840   26.1900 H   0  0  0  0  0  0  0  0  0  0  0  0
   33.8990   41.1060   27.7950 O   0  0  0  0  0  0  0  0  0  0  0  0
   34.3870   39.2140   28.2990 H   0  0  0  0  0  0  0  0  0  0  0  0
   35.5320   40.0190   27.1000 H   0  0  0  0  0  0  0  0  0  0  0  0
   33.8010   41.6920   26.9780 H   0  0  0  0  0  0  0  0  0  0  0  0
   33.9910   38.1010   26.1790 H   0  0  0  0  0  0  0  0  0  0  0  0
  1  3  2  0  0  0  0
  1  8  1  0  0  0  0
  1 23  1  0  0  0  0
  2 13  1  0  0  0  0
  2 19  2  0  0  0  0
  2 20  1  0  0  0  0
  3 14  1  0  0  0  0
  3 16  1  0  0  0  0
  4 18  2  0  0  0  0
  4 21  1  0  0  0  0
  4 22  1  0  0  0  0
  5 22  1  0  0  0  0
  5 24  1  0  0  0  0
  5 34  1  0  0  0  0
  5 43  1  0  0  0  0
  6  7  1  0  0  0  0
  6 11  1  0  0  0  0
  6 12  2  0  0  0  0
  7 13  2  0  0  0  0
  7 25  1  0  0  0  0
  8  9  2  0  0  0  0
  8 33  1  0  0  0  0
  9 10  1  0  0  0  0
  9 26  1  0  0  0  0
 10 14  2  0  0  0  0
 10 27  1  0  0  0  0
 11 20  1  0  0  0  0
 11 21  2  0  0  0  0
 12 18  1  0  0  0  0
 12 28  1  0  0  0  0
 13 17  1  0  0  0  0
 14 17  1  0  0  0  0
 15 20  1  0  0  0  0
 15 29  1  0  0  0  0
 15 30  1  0  0  0  0
 15 31  1  0  0  0  0
 22 32  1  0  0  0  0
 24 39  1  0  0  0  0
 24 40  1  0  0  0  0
 24 41  1  0  0  0  0
 34 35  1  0  0  0  0
 34 37  1  0  0  0  0
 34 38  1  0  0  0  0
 35 36  1  0  0  0  0
 39 42  1  0  0  0  0
M  END
$$$$
