6a
 OpenBabel02232411173D

 52 54  0  0  1  0  0  0  0  0999 V2000
   17.9230  -13.0700   21.5200 N   0  0  0  0  0  0  0  0  0  0  0  0
   17.6290  -11.7150   20.9620 C   0  0  2  0  0  0  0  0  0  0  0  0
   17.0770  -13.6490   22.4260 C   0  0  0  0  0  0  0  0  0  0  0  0
   16.0610  -13.0620   22.7950 O   0  0  0  0  0  0  0  0  0  0  0  0
   16.1900  -11.6530   20.3780 C   0  0  0  0  0  0  0  0  0  0  0  0
   15.6700  -12.5600   19.7480 O   0  0  0  0  0  0  0  0  0  0  0  0
   18.7030  -11.4750   19.8850 C   0  0  0  0  0  0  0  0  0  0  0  0
   17.4100  -15.0650   22.9660 C   0  0  2  0  0  0  0  0  0  0  0  0
   15.5660  -10.4300   20.5780 N   0  0  0  0  0  0  0  0  0  0  0  0
   19.7910  -12.5480   20.0760 C   0  0  0  0  0  0  0  0  0  0  0  0
   16.1100  -15.8910   22.9280 N   0  3  0  0  0  0  0  0  0  0  0  0
   17.9280  -15.0200   24.4170 C   0  0  0  0  0  0  0  0  0  0  0  0
   14.1450  -10.1690   20.2530 C   0  0  0  0  0  0  0  0  0  0  0  0
   19.1870  -13.6480   20.9690 C   0  0  0  0  0  0  0  0  0  0  0  0
   19.3740  -14.5940   24.5170 C   0  0  0  0  0  0  0  0  0  0  0  0
   13.2570  -10.2070   21.4750 C   0  0  0  0  0  0  0  0  0  0  0  0
   19.7230  -13.4530   25.2480 C   0  0  0  0  0  0  0  0  0  0  0  0
   12.3250  -11.2240   21.7180 C   0  0  0  0  0  0  0  0  0  0  0  0
   21.0630  -13.0690   25.3700 C   0  0  0  0  0  0  0  0  0  0  0  0
   11.4310  -11.1660   22.7950 C   0  0  0  0  0  0  0  0  0  0  0  0
   22.0690  -13.8480   24.7940 C   0  0  0  0  0  0  0  0  0  0  0  0
   11.4870  -10.0890   23.6810 C   0  0  0  0  0  0  0  0  0  0  0  0
   21.7270  -15.0070   24.0860 C   0  0  0  0  0  0  0  0  0  0  0  0
   12.4590   -9.1040   23.4800 C   0  0  0  0  0  0  0  0  0  0  0  0
   20.3880  -15.3760   23.9400 C   0  0  0  0  0  0  0  0  0  0  0  0
   13.3300   -9.1450   22.3910 C   0  0  0  0  0  0  0  0  0  0  0  0
   17.7520  -10.9600   21.7880 H   0  0  0  0  0  0  0  0  0  0  0  0
   18.2730  -11.5450   18.8600 H   0  0  0  0  0  0  0  0  0  0  0  0
   19.1300  -10.4610   20.0380 H   0  0  0  0  0  0  0  0  0  0  0  0
   18.1520  -15.6200   22.3190 H   0  0  0  0  0  0  0  0  0  0  0  0
   16.0480   -9.7000   21.1370 H   0  0  0  0  0  0  0  0  0  0  0  0
   20.1040  -12.9820   19.0960 H   0  0  0  0  0  0  0  0  0  0  0  0
   20.6910  -12.1100   20.5680 H   0  0  0  0  0  0  0  0  0  0  0  0
   16.2880  -16.8420   23.3690 H   0  0  0  0  0  0  0  0  0  0  0  0
   15.3320  -15.3820   23.4610 H   0  0  0  0  0  0  0  0  0  0  0  0
   15.8100  -16.0540   21.9260 H   0  0  0  0  0  0  0  0  0  0  0  0
   17.2780  -14.3470   25.0310 H   0  0  0  0  0  0  0  0  0  0  0  0
   17.8650  -16.0560   24.8580 H   0  0  0  0  0  0  0  0  0  0  0  0
   14.0950   -9.1290   19.8150 H   0  0  0  0  0  0  0  0  0  0  0  0
   13.8050  -10.8920   19.4600 H   0  0  0  0  0  0  0  0  0  0  0  0
   19.8830  -13.9100   21.8080 H   0  0  0  0  0  0  0  0  0  0  0  0
   18.9570  -14.5660   20.3690 H   0  0  0  0  0  0  0  0  0  0  0  0
   18.9520  -12.8750   25.7490 H   0  0  0  0  0  0  0  0  0  0  0  0
   12.2390  -12.5890   20.6750 Cl  0  0  0  0  0  0  0  0  0  0  0  0
   21.3000  -12.1580   25.9250 H   0  0  0  0  0  0  0  0  0  0  0  0
   10.6860  -11.9570   22.9460 H   0  0  0  0  0  0  0  0  0  0  0  0
   23.1210  -13.5670   24.9010 H   0  0  0  0  0  0  0  0  0  0  0  0
   22.5010  -15.6410   23.6440 H   0  0  0  0  0  0  0  0  0  0  0  0
   12.6230   -7.8240   24.6150 Cl  0  0  0  0  0  0  0  0  0  0  0  0
   20.1320  -16.2840   23.3890 H   0  0  0  0  0  0  0  0  0  0  0  0
   14.0710   -8.3590   22.2470 H   0  0  0  0  0  0  0  0  0  0  0  0
   10.7750  -10.0280   24.5130 H   0  0  0  0  0  0  0  0  0  0  0  0
  1  2  1  0  0  0  0
  1 14  1  0  0  0  0
  1  3  1  0  0  0  0
  2  5  1  0  0  0  0
  2  7  1  0  0  0  0
  2 27  1  1  0  0  0
  3  8  1  0  0  0  0
  3  4  2  0  0  0  0
  5  6  2  0  0  0  0
  5  9  1  0  0  0  0
  7 10  1  0  0  0  0
  7 28  1  0  0  0  0
  7 29  1  0  0  0  0
  8 11  1  0  0  0  0
  8 12  1  0  0  0  0
  8 30  1  6  0  0  0
  9 13  1  0  0  0  0
  9 31  1  0  0  0  0
 10 14  1  0  0  0  0
 10 32  1  0  0  0  0
 10 33  1  0  0  0  0
 11 34  1  0  0  0  0
 11 35  1  0  0  0  0
 11 36  1  0  0  0  0
 12 15  1  0  0  0  0
 12 37  1  0  0  0  0
 12 38  1  0  0  0  0
 13 16  1  0  0  0  0
 13 39  1  0  0  0  0
 13 40  1  0  0  0  0
 14 41  1  0  0  0  0
 14 42  1  0  0  0  0
 15 17  2  0  0  0  0
 15 25  1  0  0  0  0
 16 18  2  0  0  0  0
 16 26  1  0  0  0  0
 17 19  1  0  0  0  0
 17 43  1  0  0  0  0
 18 20  1  0  0  0  0
 18 44  1  0  0  0  0
 19 21  2  0  0  0  0
 19 45  1  0  0  0  0
 20 22  2  0  0  0  0
 20 46  1  0  0  0  0
 21 23  1  0  0  0  0
 21 47  1  0  0  0  0
 22 24  1  0  0  0  0
 22 52  1  0  0  0  0
 23 25  2  0  0  0  0
 23 48  1  0  0  0  0
 24 26  2  0  0  0  0
 24 49  1  0  0  0  0
 25 50  1  0  0  0  0
 26 51  1  0  0  0  0
M  CHG  1  11   1
M  END
$$$$
