18630-1
                    3D
 Schrodinger Suite 2022-3.
 41 42  0  0  1  0  0  0  0  0999 V2000
   25.7520    4.8160   30.0900 C   0  0  0  0  0  0  0  0  0  0  0  0
   24.4020    4.8750   29.7430 C   0  0  0  0  0  0  0  0  0  0  0  0
   23.4580    4.0960   30.4320 C   0  0  0  0  0  0  0  0  0  0  0  0
   23.8960    3.2290   31.4430 C   0  0  0  0  0  0  0  0  0  0  0  0
   25.2470    3.1730   31.7920 C   0  0  0  0  0  0  0  0  0  0  0  0
   26.1890    3.9740   31.1260 C   0  0  0  0  0  0  0  0  0  0  0  0
   21.9940    4.1850   30.0970 C   0  0  0  0  0  0  0  0  0  0  0  0
   21.2350    5.2090   30.9230 C   0  0  0  0  0  0  0  0  0  0  0  0
   21.8250    6.4950   30.9480 N   0  0  0  0  0  0  0  0  0  0  0  0
   21.2710    7.6650   31.5190 C   0  0  0  0  0  0  0  0  0  0  0  0
   20.1740    4.9760   31.4660 O   0  0  0  0  0  0  0  0  0  0  0  0
   22.0170    8.7900   31.2020 N   0  0  0  0  0  0  0  0  0  0  0  0
   21.5580    9.9880   31.6340 C   0  0  0  0  0  0  0  0  0  0  0  0
   20.3770   10.1670   32.4160 C   0  0  0  0  0  0  0  0  0  0  0  0
   19.6470    8.9820   32.7520 C   0  0  0  0  0  0  0  0  0  0  0  0
   20.1150    7.7220   32.2900 C   0  0  0  0  0  0  0  0  0  0  0  0
   18.4940    9.0430   33.4920 N   0  0  0  0  0  0  0  0  0  0  0  0
   19.9850   11.4720   32.7790 C   0  0  0  0  0  0  0  0  0  0  0  0
   22.2190   11.1180   31.3010 O   0  0  0  0  0  0  0  0  0  0  0  0
   23.4910   11.0280   30.5530 C   0  0  0  0  0  0  0  0  0  0  0  0
   23.2260   10.8170   29.0780 C   0  0  0  0  0  0  0  0  0  0  0  0
   19.7130   12.5700   33.0370 N   0  0  0  0  0  0  0  0  0  0  0  0
   26.4740    5.4350   29.5500 H   0  0  0  0  0  0  0  0  0  0  0  0
   23.1880    2.5790   31.9610 H   0  0  0  0  0  0  0  0  0  0  0  0
   19.5500    6.8190   32.5310 H   0  0  0  0  0  0  0  0  0  0  0  0
   21.5230    3.1780   30.2600 H   0  0  0  0  0  0  0  0  0  0  0  0
   21.8550    4.4630   29.0200 H   0  0  0  0  0  0  0  0  0  0  0  0
   22.7290    6.6350   30.4560 H   0  0  0  0  0  0  0  0  0  0  0  0
   17.9930    8.1790   33.7750 H   0  0  0  0  0  0  0  0  0  0  0  0
   18.1080    9.9350   33.8030 H   0  0  0  0  0  0  0  0  0  0  0  0
   24.1260   10.2250   30.9890 H   0  0  0  0  0  0  0  0  0  0  0  0
   23.8930   12.0480   30.7680 H   0  0  0  0  0  0  0  0  0  0  0  0
   24.1810   10.9480   28.5100 H   0  0  0  0  0  0  0  0  0  0  0  0
   22.8430    9.7890   28.8750 H   0  0  0  0  0  0  0  0  0  0  0  0
   22.4900   11.5560   28.6870 H   0  0  0  0  0  0  0  0  0  0  0  0
   24.0970    5.5380   28.9310 H   0  0  0  0  0  0  0  0  0  0  0  0
   25.5700    2.4960   32.5880 H   0  0  0  0  0  0  0  0  0  0  0  0
   27.6360    3.9260   31.4920 C   0  0  0  0  0  0  0  0  0  0  0  0
   28.2120    3.3730   30.7070 H   0  0  0  0  0  0  0  0  0  0  0  0
   28.0610    4.9570   31.5680 H   0  0  0  0  0  0  0  0  0  0  0  0
   27.8030    3.4110   32.4690 H   0  0  0  0  0  0  0  0  0  0  0  0
  1  2  1  0  0  0  0
  1  6  2  0  0  0  0
  1 23  1  0  0  0  0
  2  3  2  0  0  0  0
  2 36  1  0  0  0  0
  3  4  1  0  0  0  0
  3  7  1  0  0  0  0
  4  5  2  0  0  0  0
  4 24  1  0  0  0  0
  5  6  1  0  0  0  0
  5 37  1  0  0  0  0
  6 38  1  0  0  0  0
  7  8  1  0  0  0  0
  7 26  1  0  0  0  0
  7 27  1  0  0  0  0
  8  9  1  0  0  0  0
  8 11  2  0  0  0  0
  9 10  1  0  0  0  0
  9 28  1  0  0  0  0
 10 12  1  0  0  0  0
 10 16  2  0  0  0  0
 12 13  2  0  0  0  0
 13 14  1  0  0  0  0
 13 19  1  0  0  0  0
 14 15  2  0  0  0  0
 14 18  1  0  0  0  0
 15 16  1  0  0  0  0
 15 17  1  0  0  0  0
 16 25  1  0  0  0  0
 17 29  1  0  0  0  0
 17 30  1  0  0  0  0
 18 22  3  0  0  0  0
 19 20  1  0  0  0  0
 20 21  1  0  0  0  0
 20 31  1  0  0  0  0
 20 32  1  0  0  0  0
 21 33  1  0  0  0  0
 21 34  1  0  0  0  0
 21 35  1  0  0  0  0
 38 39  1  0  0  0  0
 38 40  1  0  0  0  0
 38 41  1  0  0  0  0
M  END
$$$$
