p38a_2n
 OpenBabel02232411163D
Structure written by MMmdl.
 53 56  0  0  0  0  0  0  0  0999 V2000
   36.3770   36.0800   15.7510 C   0  0  0  0  0  0  0  0  0  0  0  0
   34.6210   34.9750   21.2820 C   0  0  0  0  0  0  0  0  0  0  0  0
   35.7380   35.5870   16.8840 C   0  0  0  0  0  0  0  0  0  0  0  0
   33.9900   39.0390   23.8330 C   0  0  0  0  0  0  0  0  0  0  0  0
   34.7940   37.8300   21.4870 C   0  0  0  0  0  0  0  0  0  0  0  0
   35.2690   37.1830   20.2930 C   0  0  0  0  0  0  0  0  0  0  0  0
   37.6670   36.5940   15.9360 C   0  0  0  0  0  0  0  0  0  0  0  0
   38.3240   36.6020   17.1690 C   0  0  0  0  0  0  0  0  0  0  0  0
   37.6440   36.1370   18.3010 C   0  0  0  0  0  0  0  0  0  0  0  0
   34.3580   37.0610   22.6090 C   0  0  0  0  0  0  0  0  0  0  0  0
   34.7540   39.2430   21.6190 C   0  0  0  0  0  0  0  0  0  0  0  0
   35.2140   35.8350   20.2210 C   0  0  0  0  0  0  0  0  0  0  0  0
   36.3510   35.6300   18.1530 C   0  0  0  0  0  0  0  0  0  0  0  0
   34.5290   35.0480   16.7960 F   0  0  0  0  0  0  0  0  0  0  0  0
   35.6400   35.0070   19.1860 O   0  0  0  0  0  0  0  0  0  0  0  0
   34.3680   39.8580   22.7440 N   0  0  0  0  0  0  0  0  0  0  0  0
   34.3910   33.7930   21.1700 O   0  0  0  0  0  0  0  0  0  0  0  0
   34.3370   35.6570   22.5210 N   0  0  0  0  0  0  0  0  0  0  0  0
   33.9590   37.6600   23.7810 N   0  0  0  0  0  0  0  0  0  0  0  0
   33.6540   39.7270   24.9740 N   0  0  0  0  0  0  0  0  0  0  0  0
   35.8920   36.0880   14.7720 H   0  0  0  0  0  0  0  0  0  0  0  0
   35.6680   37.8110   19.4930 H   0  0  0  0  0  0  0  0  0  0  0  0
   39.3400   36.9930   17.2620 H   0  0  0  0  0  0  0  0  0  0  0  0
   38.1220   36.1980   19.2820 H   0  0  0  0  0  0  0  0  0  0  0  0
   35.0430   39.8850   20.7690 H   0  0  0  0  0  0  0  0  0  0  0  0
   33.6910   40.7670   24.9490 H   0  0  0  0  0  0  0  0  0  0  0  0
   38.2790   37.1350   14.8850 F   0  0  0  0  0  0  0  0  0  0  0  0
   33.5490   37.7970   28.3040 C   0  0  0  0  0  0  0  0  0  0  0  0
   34.1330   38.2450   26.9580 C   0  0  0  0  0  0  0  0  0  0  0  0
   33.1340   39.1900   26.2640 C   0  0  0  0  0  0  0  0  0  0  0  0
   31.7620   38.5020   26.1150 C   0  0  0  0  0  0  0  0  0  0  0  0
   31.2770   38.0370   27.4950 C   0  0  0  0  0  0  0  0  0  0  0  0
   32.2470   37.1900   28.1530 O   0  0  0  0  0  0  0  0  0  0  0  0
   33.4670   38.6560   29.0110 H   0  0  0  0  0  0  0  0  0  0  0  0
   34.1470   36.9640   28.7430 H   0  0  0  0  0  0  0  0  0  0  0  0
   34.3270   37.3500   26.3180 H   0  0  0  0  0  0  0  0  0  0  0  0
   35.1020   38.7720   27.1280 H   0  0  0  0  0  0  0  0  0  0  0  0
   33.0060   40.1140   26.9080 H   0  0  0  0  0  0  0  0  0  0  0  0
   31.0220   39.2130   25.6790 H   0  0  0  0  0  0  0  0  0  0  0  0
   31.8510   37.6200   25.4350 H   0  0  0  0  0  0  0  0  0  0  0  0
   31.0550   38.9040   28.1560 H   0  0  0  0  0  0  0  0  0  0  0  0
   30.3990   37.3560   27.4050 H   0  0  0  0  0  0  0  0  0  0  0  0
   33.9360   34.8150   23.6960 C   0  0  0  0  0  0  0  0  0  0  0  0
   34.5150   33.8510   23.6330 H   0  0  0  0  0  0  0  0  0  0  0  0
   34.2240   35.3480   24.6440 H   0  0  0  0  0  0  0  0  0  0  0  0
   32.4280   34.5210   23.7010 C   0  0  0  0  0  0  0  0  0  0  0  0
   31.8760   35.4240   24.0660 H   0  0  0  0  0  0  0  0  0  0  0  0
   32.0670   34.2870   22.6710 H   0  0  0  0  0  0  0  0  0  0  0  0
   32.0880   33.3400   24.6210 C   0  0  0  0  0  0  0  0  0  0  0  0
   32.6280   33.4080   25.5930 H   0  0  0  0  0  0  0  0  0  0  0  0
   30.9840   33.2860   24.7850 H   0  0  0  0  0  0  0  0  0  0  0  0
   32.3920   32.0820   23.9910 O   0  0  0  0  0  0  0  0  0  0  0  0
   33.3790   31.9030   24.1010 H   0  0  0  0  0  0  0  0  0  0  0  0
  1  3  2  0  0  0  0
  1  7  1  0  0  0  0
  1 21  1  0  0  0  0
  2 12  1  0  0  0  0
  2 17  2  0  0  0  0
  2 18  1  0  0  0  0
  3 13  1  0  0  0  0
  3 14  1  0  0  0  0
  4 16  2  0  0  0  0
  4 19  1  0  0  0  0
  4 20  1  0  0  0  0
  5  6  1  0  0  0  0
  5 10  1  0  0  0  0
  5 11  2  0  0  0  0
  6 12  2  0  0  0  0
  6 22  1  0  0  0  0
  7  8  2  0  0  0  0
  7 27  1  0  0  0  0
  8  9  1  0  0  0  0
  8 23  1  0  0  0  0
  9 13  2  0  0  0  0
  9 24  1  0  0  0  0
 10 18  1  0  0  0  0
 10 19  2  0  0  0  0
 11 16  1  0  0  0  0
 11 25  1  0  0  0  0
 12 15  1  0  0  0  0
 13 15  1  0  0  0  0
 18 43  1  0  0  0  0
 20 26  1  0  0  0  0
 20 30  1  0  0  0  0
 28 29  1  0  0  0  0
 28 33  1  0  0  0  0
 28 34  1  0  0  0  0
 28 35  1  0  0  0  0
 29 30  1  0  0  0  0
 29 36  1  0  0  0  0
 29 37  1  0  0  0  0
 30 31  1  0  0  0  0
 30 38  1  0  0  0  0
 31 32  1  0  0  0  0
 31 39  1  0  0  0  0
 31 40  1  0  0  0  0
 32 33  1  0  0  0  0
 32 41  1  0  0  0  0
 32 42  1  0  0  0  0
 43 44  1  0  0  0  0
 43 45  1  0  0  0  0
 43 46  1  0  0  0  0
 46 47  1  0  0  0  0
 46 48  1  0  0  0  0
 46 49  1  0  0  0  0
 49 50  1  0  0  0  0
 49 51  1  0  0  0  0
 49 52  1  0  0  0  0
 52 53  1  0  0  0  0
M  END
$$$$
