21
 OpenBabel02232411153D
Structure written by MMmdl.
 49 52  0  0  0  0  0  0  0  0999 V2000
    1.8590   28.8280    6.8350 C   0  0  0  0  0  0  0  0  0  0  0  0
   -1.6000   31.4690    7.9660 C   0  0  0  0  0  0  0  0  0  0  0  0
   -0.1760   25.9690    8.8990 C   0  0  0  0  0  0  0  0  0  0  0  0
   -0.9370   25.2770   10.0380 C   0  0  0  0  0  0  0  0  0  0  0  0
   -0.7580   23.7530    9.8460 C   0  0  0  0  0  0  0  0  0  0  0  0
   -1.3670   22.9620   11.0110 C   0  0  0  0  0  0  0  0  0  0  0  0
   -0.8130   23.4310   12.3660 C   0  0  0  0  0  0  0  0  0  0  0  0
   -1.0350   24.9390   12.5600 C   0  0  0  0  0  0  0  0  0  0  0  0
   -0.4140   25.7450   11.4100 C   0  0  0  0  0  0  0  0  0  0  0  0
    4.3750   25.3360    8.0530 C   0  0  0  0  0  0  0  0  0  0  0  0
    5.1930   24.8060    7.0630 C   0  0  0  0  0  0  0  0  0  0  0  0
    5.2970   25.5020    5.8370 C   0  0  0  0  0  0  0  0  0  0  0  0
    4.6190   26.6980    5.6060 C   0  0  0  0  0  0  0  0  0  0  0  0
    1.1230   27.8840    7.5470 N   0  0  0  0  0  0  0  0  0  0  0  0
   -0.0710   28.2270    8.0890 C   0  0  0  0  0  0  0  0  0  0  0  0
   -0.7670   27.3310    8.8060 O   0  0  0  0  0  0  0  0  0  0  0  0
   -0.5790   29.5420    7.9140 C   0  0  0  0  0  0  0  0  0  0  0  0
   -1.7190   30.2050    8.3810 N   0  0  0  0  0  0  0  0  0  0  0  0
   -0.3840   31.6870    7.2260 N   0  0  0  0  0  0  0  0  0  0  0  0
    0.2660   30.4580    7.1640 C   0  0  0  0  0  0  0  0  0  0  0  0
    1.4630   30.1320    6.5770 N   0  0  0  0  0  0  0  0  0  0  0  0
    3.0890   28.4220    6.3330 N   0  0  0  0  0  0  0  0  0  0  0  0
    3.7710   27.1930    6.6240 C   0  0  0  0  0  0  0  0  0  0  0  0
    3.6660   26.5290    7.8510 C   0  0  0  0  0  0  0  0  0  0  0  0
   -2.2940   32.2820    8.1560 H   0  0  0  0  0  0  0  0  0  0  0  0
    0.9100   26.0540    9.1290 H   0  0  0  0  0  0  0  0  0  0  0  0
   -0.3610   25.4980    7.9130 H   0  0  0  0  0  0  0  0  0  0  0  0
   -2.0240   25.5230    9.9770 H   0  0  0  0  0  0  0  0  0  0  0  0
   -1.2510   23.4420    8.8990 H   0  0  0  0  0  0  0  0  0  0  0  0
    0.3320   23.5140    9.7820 H   0  0  0  0  0  0  0  0  0  0  0  0
   -2.4700   23.0980   11.0100 H   0  0  0  0  0  0  0  0  0  0  0  0
   -1.1410   21.8770   10.8820 H   0  0  0  0  0  0  0  0  0  0  0  0
   -1.3180   22.8720   13.1870 H   0  0  0  0  0  0  0  0  0  0  0  0
    0.2800   23.2150   12.4060 H   0  0  0  0  0  0  0  0  0  0  0  0
   -2.1270   25.1480   12.6290 H   0  0  0  0  0  0  0  0  0  0  0  0
   -0.5620   25.2570   13.5190 H   0  0  0  0  0  0  0  0  0  0  0  0
    0.6950   25.6220   11.4550 H   0  0  0  0  0  0  0  0  0  0  0  0
   -0.6540   26.8240   11.5480 H   0  0  0  0  0  0  0  0  0  0  0  0
    4.2700   24.8140    9.0080 H   0  0  0  0  0  0  0  0  0  0  0  0
    5.7370   23.8760    7.2090 H   0  0  0  0  0  0  0  0  0  0  0  0
    4.7290   27.2540    4.6780 H   0  0  0  0  0  0  0  0  0  0  0  0
   -0.1120   32.5650    6.7600 H   0  0  0  0  0  0  0  0  0  0  0  0
    3.6020   29.0650    5.6850 H   0  0  0  0  0  0  0  0  0  0  0  0
    3.0340   26.9070    8.6540 H   0  0  0  0  0  0  0  0  0  0  0  0
    6.1050   24.8450    4.9390 O   0  0  0  0  0  0  0  0  0  0  0  0
    6.3210   25.4510    3.6390 C   0  0  0  0  0  0  0  0  0  0  0  0
    6.9750   24.6960    3.1420 H   0  0  0  0  0  0  0  0  0  0  0  0
    5.3550   25.5600    3.1010 H   0  0  0  0  0  0  0  0  0  0  0  0
    6.8510   26.4200    3.7610 H   0  0  0  0  0  0  0  0  0  0  0  0
  1 14  2  0  0  0  0
  1 21  1  0  0  0  0
  1 22  1  0  0  0  0
  2 18  2  0  0  0  0
  2 19  1  0  0  0  0
  2 25  1  0  0  0  0
  3  4  1  0  0  0  0
  3 16  1  0  0  0  0
  3 26  1  0  0  0  0
  3 27  1  0  0  0  0
  4  5  1  0  0  0  0
  4  9  1  0  0  0  0
  4 28  1  0  0  0  0
  5  6  1  0  0  0  0
  5 29  1  0  0  0  0
  5 30  1  0  0  0  0
  6  7  1  0  0  0  0
  6 31  1  0  0  0  0
  6 32  1  0  0  0  0
  7  8  1  0  0  0  0
  7 33  1  0  0  0  0
  7 34  1  0  0  0  0
  8  9  1  0  0  0  0
  8 35  1  0  0  0  0
  8 36  1  0  0  0  0
  9 37  1  0  0  0  0
  9 38  1  0  0  0  0
 10 11  2  0  0  0  0
 10 24  1  0  0  0  0
 10 39  1  0  0  0  0
 11 12  1  0  0  0  0
 11 40  1  0  0  0  0
 12 13  2  0  0  0  0
 12 45  1  0  0  0  0
 13 23  1  0  0  0  0
 13 41  1  0  0  0  0
 14 15  1  0  0  0  0
 15 16  1  0  0  0  0
 15 17  2  0  0  0  0
 17 18  1  0  0  0  0
 17 20  1  0  0  0  0
 19 20  1  0  0  0  0
 19 42  1  0  0  0  0
 20 21  2  0  0  0  0
 22 23  1  0  0  0  0
 22 43  1  0  0  0  0
 23 24  2  0  0  0  0
 24 44  1  0  0  0  0
 45 46  1  0  0  0  0
 46 47  1  0  0  0  0
 46 48  1  0  0  0  0
 46 49  1  0  0  0  0
M  END
$$$$
