p38a_2aa
 OpenBabel02232411163D
Structure written by MMmdl.
 43 45  0  0  0  0  0  0  0  0999 V2000
   38.2530   36.5060   17.1910 C   0  0  0  0  0  0  0  0  0  0  0  0
   34.6220   35.1470   21.3030 C   0  0  0  0  0  0  0  0  0  0  0  0
   37.4530   36.0600   18.2400 C   0  0  0  0  0  0  0  0  0  0  0  0
   34.3540   39.2860   23.7930 C   0  0  0  0  0  0  0  0  0  0  0  0
   34.0850   39.2640   26.2890 C   0  0  0  0  0  0  0  0  0  0  0  0
   34.7200   38.0250   21.3750 C   0  0  0  0  0  0  0  0  0  0  0  0
   35.0200   37.3400   20.1480 C   0  0  0  0  0  0  0  0  0  0  0  0
   37.6220   36.6600   15.9490 C   0  0  0  0  0  0  0  0  0  0  0  0
   36.2760   36.3610   15.7260 C   0  0  0  0  0  0  0  0  0  0  0  0
   35.4960   35.9050   16.7940 C   0  0  0  0  0  0  0  0  0  0  0  0
   34.5080   37.2790   22.5740 C   0  0  0  0  0  0  0  0  0  0  0  0
   34.6400   39.4390   21.4720 C   0  0  0  0  0  0  0  0  0  0  0  0
   35.0180   35.9870   20.1410 C   0  0  0  0  0  0  0  0  0  0  0  0
   36.0890   35.7480   18.0490 C   0  0  0  0  0  0  0  0  0  0  0  0
   34.2360   35.1240   23.8000 C   0  0  0  0  0  0  0  0  0  0  0  0
   37.9710   35.9260   19.4540 F   0  0  0  0  0  0  0  0  0  0  0  0
   35.3400   35.1510   19.0740 O   0  0  0  0  0  0  0  0  0  0  0  0
   34.4500   40.0780   22.6370 N   0  0  0  0  0  0  0  0  0  0  0  0
   34.4340   33.9520   21.2820 O   0  0  0  0  0  0  0  0  0  0  0  0
   34.4580   35.8790   22.5350 N   0  0  0  0  0  0  0  0  0  0  0  0
   34.3250   37.9070   23.7840 N   0  0  0  0  0  0  0  0  0  0  0  0
   34.3580   39.9630   25.0040 N   0  0  0  0  0  0  0  0  0  0  0  0
   39.3070   36.7610   17.3370 H   0  0  0  0  0  0  0  0  0  0  0  0
   34.7990   40.0450   27.4240 C   0  0  0  0  0  0  0  0  0  0  0  0
   35.2580   37.9380   19.2660 H   0  0  0  0  0  0  0  0  0  0  0  0
   35.8210   36.4970   14.7430 H   0  0  0  0  0  0  0  0  0  0  0  0
   34.4330   35.6910   16.6400 H   0  0  0  0  0  0  0  0  0  0  0  0
   34.7230   40.0610   20.5650 H   0  0  0  0  0  0  0  0  0  0  0  0
   34.9260   35.5030   24.6030 H   0  0  0  0  0  0  0  0  0  0  0  0
   33.1770   35.2610   24.1480 H   0  0  0  0  0  0  0  0  0  0  0  0
   34.4320   34.0320   23.6390 H   0  0  0  0  0  0  0  0  0  0  0  0
   34.0780   40.9630   25.0030 H   0  0  0  0  0  0  0  0  0  0  0  0
   38.3340   37.1580   14.9410 F   0  0  0  0  0  0  0  0  0  0  0  0
   32.5690   39.1440   26.5860 C   0  0  0  0  0  0  0  0  0  0  0  0
   31.8470   38.4500   25.5610 O   0  0  0  0  0  0  0  0  0  0  0  0
   32.4530   37.8120   25.1080 H   0  0  0  0  0  0  0  0  0  0  0  0
   32.4250   38.5830   27.5410 H   0  0  0  0  0  0  0  0  0  0  0  0
   32.0840   40.1480   26.6200 H   0  0  0  0  0  0  0  0  0  0  0  0
   34.0780   41.2110   27.8440 O   0  0  0  0  0  0  0  0  0  0  0  0
   34.8350   39.4230   28.3520 H   0  0  0  0  0  0  0  0  0  0  0  0
   35.8220   40.3540   27.1050 H   0  0  0  0  0  0  0  0  0  0  0  0
   33.8800   41.7830   27.0370 H   0  0  0  0  0  0  0  0  0  0  0  0
   34.5480   38.2330   26.2550 H   0  0  0  0  0  0  0  0  0  0  0  0
  1  3  2  0  0  0  0
  1  8  1  0  0  0  0
  1 23  1  0  0  0  0
  2 13  1  0  0  0  0
  2 19  2  0  0  0  0
  2 20  1  0  0  0  0
  3 14  1  0  0  0  0
  3 16  1  0  0  0  0
  4 18  2  0  0  0  0
  4 21  1  0  0  0  0
  4 22  1  0  0  0  0
  5 22  1  0  0  0  0
  5 24  1  0  0  0  0
  5 34  1  0  0  0  0
  5 43  1  0  0  0  0
  6  7  1  0  0  0  0
  6 11  1  0  0  0  0
  6 12  2  0  0  0  0
  7 13  2  0  0  0  0
  7 25  1  0  0  0  0
  8  9  2  0  0  0  0
  8 33  1  0  0  0  0
  9 10  1  0  0  0  0
  9 26  1  0  0  0  0
 10 14  2  0  0  0  0
 10 27  1  0  0  0  0
 11 20  1  0  0  0  0
 11 21  2  0  0  0  0
 12 18  1  0  0  0  0
 12 28  1  0  0  0  0
 13 17  1  0  0  0  0
 14 17  1  0  0  0  0
 15 20  1  0  0  0  0
 15 29  1  0  0  0  0
 15 30  1  0  0  0  0
 15 31  1  0  0  0  0
 22 32  1  0  0  0  0
 24 39  1  0  0  0  0
 24 40  1  0  0  0  0
 24 41  1  0  0  0  0
 34 35  1  0  0  0  0
 34 37  1  0  0  0  0
 34 38  1  0  0  0  0
 35 36  1  0  0  0  0
 39 42  1  0  0  0  0
M  END
$$$$
