18639-1
 OpenBabel02232411163D
Structure written by MMmdl.
 48 49  0  0  0  0  0  0  0  0999 V2000
   23.2170   10.7790   29.0670 C   0  0  0  0  0  0  0  0  0  0  0  0
   23.4940   11.0300   30.5340 C   0  0  0  0  0  0  0  0  0  0  0  0
   22.2290   11.1460   31.2900 O   0  0  0  0  0  0  0  0  0  0  0  0
   21.5650   10.0200   31.6360 C   0  0  0  0  0  0  0  0  0  0  0  0
   22.0310    8.8200   31.2180 N   0  0  0  0  0  0  0  0  0  0  0  0
   21.2820    7.6980   31.5310 C   0  0  0  0  0  0  0  0  0  0  0  0
   20.1150    7.7560   32.2830 C   0  0  0  0  0  0  0  0  0  0  0  0
   19.6470    9.0170   32.7430 C   0  0  0  0  0  0  0  0  0  0  0  0
   18.4930    9.0770   33.4810 N   0  0  0  0  0  0  0  0  0  0  0  0
   20.3810   10.2010   32.4100 C   0  0  0  0  0  0  0  0  0  0  0  0
   19.9880   11.5080   32.7700 C   0  0  0  0  0  0  0  0  0  0  0  0
   19.7170   12.6070   33.0250 N   0  0  0  0  0  0  0  0  0  0  0  0
   21.8570    6.5280   30.9810 N   0  0  0  0  0  0  0  0  0  0  0  0
   21.2460    5.2630   30.8720 C   0  0  0  0  0  0  0  0  0  0  0  0
   20.1450    5.0220   31.3200 O   0  0  0  0  0  0  0  0  0  0  0  0
   22.0690    4.2620   30.0680 C   0  0  0  0  0  0  0  0  0  0  0  0
   23.4370    3.9910   30.6220 C   0  0  0  0  0  0  0  0  0  0  0  0
   24.5340    4.8510   30.3010 C   0  0  0  0  0  0  0  0  0  0  0  0
   24.1760    5.8980   29.4600 O   0  0  0  0  0  0  0  0  0  0  0  0
   25.1280    6.9870   29.3000 C   0  0  0  0  0  0  0  0  0  0  0  0
   25.8130    4.6120   30.7760 C   0  0  0  0  0  0  0  0  0  0  0  0
   26.0440    3.4980   31.6110 C   0  0  0  0  0  0  0  0  0  0  0  0
   27.3960    3.2450   32.1160 N   0  3  0  0  0  0  0  0  0  0  0  0
   27.5290    2.4590   33.0420 O   0  5  0  0  0  0  0  0  0  0  0  0
   28.3370    3.8250   31.5860 O   0  0  0  0  0  0  0  0  0  0  0  0
   24.9730    2.6330   31.9340 C   0  0  0  0  0  0  0  0  0  0  0  0
   23.6780    2.8860   31.4230 C   0  0  0  0  0  0  0  0  0  0  0  0
   25.3200    1.5970   32.7470 O   0  0  0  0  0  0  0  0  0  0  0  0
   24.3220    0.5620   32.9910 C   0  0  0  0  0  0  0  0  0  0  0  0
   24.1780   10.8310   28.4970 H   0  0  0  0  0  0  0  0  0  0  0  0
   22.5250   11.5440   28.6480 H   0  0  0  0  0  0  0  0  0  0  0  0
   22.7720    9.7690   28.9070 H   0  0  0  0  0  0  0  0  0  0  0  0
   23.9070   12.0510   30.7180 H   0  0  0  0  0  0  0  0  0  0  0  0
   24.1260   10.2320   30.9860 H   0  0  0  0  0  0  0  0  0  0  0  0
   19.5420    6.8540   32.5070 H   0  0  0  0  0  0  0  0  0  0  0  0
   17.9870    8.2110   33.7490 H   0  0  0  0  0  0  0  0  0  0  0  0
   18.1030    9.9680   33.7870 H   0  0  0  0  0  0  0  0  0  0  0  0
   22.7810    6.6730   30.5010 H   0  0  0  0  0  0  0  0  0  0  0  0
   21.4940    3.3000   30.0080 H   0  0  0  0  0  0  0  0  0  0  0  0
   22.1770    4.6780   29.0260 H   0  0  0  0  0  0  0  0  0  0  0  0
   25.4440    7.3800   30.2900 H   0  0  0  0  0  0  0  0  0  0  0  0
   25.9840    6.6340   28.6870 H   0  0  0  0  0  0  0  0  0  0  0  0
   24.5100    7.7350   28.7500 H   0  0  0  0  0  0  0  0  0  0  0  0
   26.6530    5.2630   30.5060 H   0  0  0  0  0  0  0  0  0  0  0  0
   22.8620    2.1980   31.6580 H   0  0  0  0  0  0  0  0  0  0  0  0
   24.9070   -0.1700   33.5990 H   0  0  0  0  0  0  0  0  0  0  0  0
   23.4750    0.9780   33.5760 H   0  0  0  0  0  0  0  0  0  0  0  0
   23.9960    0.1110   32.0290 H   0  0  0  0  0  0  0  0  0  0  0  0
  1  2  1  0  0  0  0
  1 30  1  0  0  0  0
  1 31  1  0  0  0  0
  1 32  1  0  0  0  0
  2  3  1  0  0  0  0
  2 33  1  0  0  0  0
  2 34  1  0  0  0  0
  3  4  1  0  0  0  0
  4 10  2  0  0  0  0
  4  5  1  0  0  0  0
  5  6  2  0  0  0  0
  6  7  1  0  0  0  0
  6 13  1  0  0  0  0
  7  8  2  0  0  0  0
  7 35  1  0  0  0  0
  8  9  1  0  0  0  0
  8 10  1  0  0  0  0
  9 36  1  0  0  0  0
  9 37  1  0  0  0  0
 10 11  1  0  0  0  0
 11 12  3  0  0  0  0
 13 14  1  0  0  0  0
 13 38  1  0  0  0  0
 14 15  2  0  0  0  0
 14 16  1  0  0  0  0
 16 17  1  0  0  0  0
 16 39  1  0  0  0  0
 16 40  1  0  0  0  0
 17 27  2  0  0  0  0
 17 18  1  0  0  0  0
 18 19  1  0  0  0  0
 18 21  2  0  0  0  0
 19 20  1  0  0  0  0
 20 41  1  0  0  0  0
 20 42  1  0  0  0  0
 20 43  1  0  0  0  0
 21 22  1  0  0  0  0
 21 44  1  0  0  0  0
 22 23  1  0  0  0  0
 22 26  2  0  0  0  0
 23 24  1  0  0  0  0
 23 25  2  0  0  0  0
 26 27  1  0  0  0  0
 26 28  1  0  0  0  0
 27 45  1  0  0  0  0
 28 29  1  0  0  0  0
 29 46  1  0  0  0  0
 29 47  1  0  0  0  0
 29 48  1  0  0  0  0
M  CHG  2  23   1  24  -1
M  END
$$$$
