p38a_3flw
 OpenBabel02232411163D
Structure written by MMmdl.
 49 51  0  0  0  0  0  0  0  0999 V2000
   38.2890   36.5240   17.1730 C   0  0  0  0  0  0  0  0  0  0  0  0
   37.6390   36.6740   15.9400 C   0  0  0  0  0  0  0  0  0  0  0  0
   31.6150   38.5810   25.6860 C   0  0  0  0  0  0  0  0  0  0  0  0
   30.8370   39.1320   24.4860 C   0  0  0  0  0  0  0  0  0  0  0  0
   33.8460   38.5310   26.9480 C   0  0  0  0  0  0  0  0  0  0  0  0
   33.6480   35.0660   23.6100 C   0  0  0  0  0  0  0  0  0  0  0  0
   38.0440   35.9380   19.4390 F   0  0  0  0  0  0  0  0  0  0  0  0
   37.5110   36.0630   18.2310 C   0  0  0  0  0  0  0  0  0  0  0  0
   38.3320   37.1800   14.9230 F   0  0  0  0  0  0  0  0  0  0  0  0
   36.2940   36.3600   15.7360 C   0  0  0  0  0  0  0  0  0  0  0  0
   35.5360   35.8840   16.8120 C   0  0  0  0  0  0  0  0  0  0  0  0
   36.1510   35.7260   18.0570 C   0  0  0  0  0  0  0  0  0  0  0  0
   35.4350   35.1030   19.0880 O   0  0  0  0  0  0  0  0  0  0  0  0
   35.0490   35.9350   20.1390 C   0  0  0  0  0  0  0  0  0  0  0  0
   35.1000   37.2870   20.1740 C   0  0  0  0  0  0  0  0  0  0  0  0
   34.6940   37.9620   21.3740 C   0  0  0  0  0  0  0  0  0  0  0  0
   34.7190   39.3780   21.5060 C   0  0  0  0  0  0  0  0  0  0  0  0
   34.3780   40.0090   22.6350 N   0  0  0  0  0  0  0  0  0  0  0  0
   34.5250   35.0900   21.2440 C   0  0  0  0  0  0  0  0  0  0  0  0
   34.3880   33.8860   21.2060 O   0  0  0  0  0  0  0  0  0  0  0  0
   34.1660   35.8160   22.4320 N   0  0  0  0  0  0  0  0  0  0  0  0
   34.2520   37.2180   22.5060 C   0  0  0  0  0  0  0  0  0  0  0  0
   33.8940   37.8310   23.6820 N   0  0  0  0  0  0  0  0  0  0  0  0
   33.9630   39.2090   23.7250 C   0  0  0  0  0  0  0  0  0  0  0  0
   33.6810   39.8880   24.8880 N   0  0  0  0  0  0  0  0  0  0  0  0
   32.8990   39.3600   26.0490 C   0  0  0  0  0  0  0  0  0  0  0  0
   33.3550   38.4100   28.3960 C   0  0  0  0  0  0  0  0  0  0  0  0
   32.7820   37.1160   28.6660 O   0  0  0  0  0  0  0  0  0  0  0  0
   30.8230   40.5650   24.4690 O   0  0  0  0  0  0  0  0  0  0  0  0
   39.3410   36.7920   17.3050 H   0  0  0  0  0  0  0  0  0  0  0  0
   30.9540   38.5970   26.5870 H   0  0  0  0  0  0  0  0  0  0  0  0
   31.8720   37.5150   25.4600 H   0  0  0  0  0  0  0  0  0  0  0  0
   31.3500   38.8930   23.5270 H   0  0  0  0  0  0  0  0  0  0  0  0
   29.7930   38.7480   24.4950 H   0  0  0  0  0  0  0  0  0  0  0  0
   33.9890   37.5110   26.5140 H   0  0  0  0  0  0  0  0  0  0  0  0
   34.8470   39.0340   26.9570 H   0  0  0  0  0  0  0  0  0  0  0  0
   34.2450   35.3240   24.5270 H   0  0  0  0  0  0  0  0  0  0  0  0
   32.5760   35.3450   23.7970 H   0  0  0  0  0  0  0  0  0  0  0  0
   33.7160   33.9620   23.4280 H   0  0  0  0  0  0  0  0  0  0  0  0
   35.8210   36.4970   14.7600 H   0  0  0  0  0  0  0  0  0  0  0  0
   34.4750   35.6560   16.6720 H   0  0  0  0  0  0  0  0  0  0  0  0
   35.4460   37.8910   19.3320 H   0  0  0  0  0  0  0  0  0  0  0  0
   35.0160   40.0010   20.6470 H   0  0  0  0  0  0  0  0  0  0  0  0
   33.6640   40.9280   24.8500 H   0  0  0  0  0  0  0  0  0  0  0  0
   32.5850   40.2910   26.6090 H   0  0  0  0  0  0  0  0  0  0  0  0
   34.2130   38.4470   29.1100 H   0  0  0  0  0  0  0  0  0  0  0  0
   32.6000   39.1890   28.6490 H   0  0  0  0  0  0  0  0  0  0  0  0
   32.0500   36.9430   28.0220 H   0  0  0  0  0  0  0  0  0  0  0  0
   30.0600   40.9080   25.0180 H   0  0  0  0  0  0  0  0  0  0  0  0
  1  2  2  0  0  0  0
  1  8  1  0  0  0  0
  1 30  1  0  0  0  0
  2  9  1  0  0  0  0
  2 10  1  0  0  0  0
  3  4  1  0  0  0  0
  3 26  1  0  0  0  0
  3 31  1  0  0  0  0
  3 32  1  0  0  0  0
  4 29  1  0  0  0  0
  4 33  1  0  0  0  0
  4 34  1  0  0  0  0
  5 26  1  0  0  0  0
  5 27  1  0  0  0  0
  5 35  1  0  0  0  0
  5 36  1  0  0  0  0
  6 21  1  0  0  0  0
  6 37  1  0  0  0  0
  6 38  1  0  0  0  0
  6 39  1  0  0  0  0
  7  8  1  0  0  0  0
  8 12  2  0  0  0  0
 10 11  2  0  0  0  0
 10 40  1  0  0  0  0
 11 12  1  0  0  0  0
 11 41  1  0  0  0  0
 12 13  1  0  0  0  0
 13 14  1  0  0  0  0
 14 15  2  0  0  0  0
 14 19  1  0  0  0  0
 15 16  1  0  0  0  0
 15 42  1  0  0  0  0
 16 17  2  0  0  0  0
 16 22  1  0  0  0  0
 17 18  1  0  0  0  0
 17 43  1  0  0  0  0
 18 24  2  0  0  0  0
 19 20  2  0  0  0  0
 19 21  1  0  0  0  0
 21 22  1  0  0  0  0
 22 23  2  0  0  0  0
 23 24  1  0  0  0  0
 24 25  1  0  0  0  0
 25 26  1  0  0  0  0
 25 44  1  0  0  0  0
 26 45  1  0  0  0  0
 27 28  1  0  0  0  0
 27 46  1  0  0  0  0
 27 47  1  0  0  0  0
 28 48  1  0  0  0  0
 29 49  1  0  0  0  0
M  END
$$$$
