48
 OpenBabel02232411163D
Structure written by MMmdl.
 42 45  0  0  0  0  0  0  0  0999 V2000
    3.7390  -49.9340    5.6360 O   0  0  0  0  0  0  0  0  0  0  0  0
    2.9920  -49.1890    6.3020 C   0  0  0  0  0  0  0  0  0  0  0  0
    3.3420  -48.2360    7.0100 O   0  5  0  0  0  0  0  0  0  0  0  0
    1.4980  -49.5610    6.2380 C   0  0  0  0  0  0  0  0  0  0  0  0
   -0.2560  -51.0380    6.2970 C   0  0  0  0  0  0  0  0  0  0  0  0
   -1.0940  -52.1580    6.4380 C   0  0  0  0  0  0  0  0  0  0  0  0
   -2.4600  -51.9530    6.3100 C   0  0  0  0  0  0  0  0  0  0  0  0
   -2.9890  -50.6710    6.0300 C   0  0  0  0  0  0  0  0  0  0  0  0
   -2.1660  -49.5620    5.8850 C   0  0  0  0  0  0  0  0  0  0  0  0
   -0.7780  -49.7220    6.0300 C   0  0  0  0  0  0  0  0  0  0  0  0
    0.3490  -48.8120    6.0100 C   0  0  0  0  0  0  0  0  0  0  0  0
    0.1780  -47.3390    5.8770 C   0  0  0  0  0  0  0  0  0  0  0  0
   -0.2780  -46.7770    7.2400 C   0  0  0  0  0  0  0  0  0  0  0  0
   -0.9300  -45.4030    7.1790 C   0  0  0  0  0  0  0  0  0  0  0  0
   -2.2550  -45.4380    6.5500 O   0  0  0  0  0  0  0  0  0  0  0  0
   -3.3620  -45.5600    7.3420 C   0  0  0  0  0  0  0  0  0  0  0  0
   -5.8060  -45.6970    8.8250 C   0  0  0  0  0  0  0  0  0  0  0  0
   -4.6500  -46.3140    9.2660 C   0  0  0  0  0  0  0  0  0  0  0  0
   -3.4310  -46.2460    8.5520 C   0  0  0  0  0  0  0  0  0  0  0  0
   -0.6950  -53.1490    6.6500 H   0  0  0  0  0  0  0  0  0  0  0  0
   -3.1520  -52.7870    6.4330 H   0  0  0  0  0  0  0  0  0  0  0  0
   -4.0700  -50.5600    5.9300 H   0  0  0  0  0  0  0  0  0  0  0  0
   -2.6000  -48.5840    5.6720 H   0  0  0  0  0  0  0  0  0  0  0  0
   -0.6140  -47.1250    5.1150 H   0  0  0  0  0  0  0  0  0  0  0  0
    1.1210  -46.8400    5.5560 H   0  0  0  0  0  0  0  0  0  0  0  0
    0.6100  -46.6980    7.9110 H   0  0  0  0  0  0  0  0  0  0  0  0
   -1.0070  -47.4940    7.6910 H   0  0  0  0  0  0  0  0  0  0  0  0
   -0.4150  -44.7190    6.4680 H   0  0  0  0  0  0  0  0  0  0  0  0
   -1.0330  -44.9470    8.1880 H   0  0  0  0  0  0  0  0  0  0  0  0
   -2.5700  -46.7540    8.9740 H   0  0  0  0  0  0  0  0  0  0  0  0
   -4.6720  -46.8820   10.2000 H   0  0  0  0  0  0  0  0  0  0  0  0
   -6.7330  -45.7390    9.3860 H   0  0  0  0  0  0  0  0  0  0  0  0
    1.1380  -50.9140    6.4120 N   0  0  0  0  0  0  0  0  0  0  0  0
    1.7560  -51.7020    6.5740 H   0  0  0  0  0  0  0  0  0  0  0  0
   -6.1710  -43.8590    5.6650 C   0  0  0  0  0  0  0  0  0  0  0  0
   -6.7320  -44.3370    6.8800 N   0  0  0  0  0  0  0  0  0  0  0  0
   -5.7350  -45.0180    7.5890 C   0  0  0  0  0  0  0  0  0  0  0  0
   -4.5260  -44.9300    6.8220 C   0  0  0  0  0  0  0  0  0  0  0  0
   -4.8320  -44.1980    5.6220 C   0  0  0  0  0  0  0  0  0  0  0  0
   -7.7080  -44.2920    7.1180 H   0  0  0  0  0  0  0  0  0  0  0  0
   -4.1420  -43.9690    4.8320 H   0  0  0  0  0  0  0  0  0  0  0  0
   -6.7720  -43.3180    4.9580 H   0  0  0  0  0  0  0  0  0  0  0  0
  1  2  2  0  0  0  0
  2  3  1  0  0  0  0
  2  4  1  0  0  0  0
  4 11  2  0  0  0  0
  4 33  1  0  0  0  0
  5  6  2  0  0  0  0
  5 10  1  0  0  0  0
  5 33  1  0  0  0  0
  6  7  1  0  0  0  0
  6 20  1  0  0  0  0
  7  8  2  0  0  0  0
  7 21  1  0  0  0  0
  8  9  1  0  0  0  0
  8 22  1  0  0  0  0
  9 10  2  0  0  0  0
  9 23  1  0  0  0  0
 10 11  1  0  0  0  0
 11 12  1  0  0  0  0
 12 24  1  0  0  0  0
 12 25  1  0  0  0  0
 12 13  1  0  0  0  0
 13 14  1  0  0  0  0
 13 26  1  0  0  0  0
 13 27  1  0  0  0  0
 14 15  1  0  0  0  0
 14 28  1  0  0  0  0
 14 29  1  0  0  0  0
 15 16  1  0  0  0  0
 16 19  2  0  0  0  0
 16 38  1  0  0  0  0
 17 18  2  0  0  0  0
 17 32  1  0  0  0  0
 17 37  1  0  0  0  0
 18 19  1  0  0  0  0
 18 31  1  0  0  0  0
 19 30  1  0  0  0  0
 33 34  1  0  0  0  0
 35 36  1  0  0  0  0
 35 39  2  0  0  0  0
 35 42  1  0  0  0  0
 36 37  1  0  0  0  0
 36 40  1  0  0  0  0
 37 38  2  0  0  0  0
 38 39  1  0  0  0  0
 39 41  1  0  0  0  0
M  CHG  1   3  -1
M  END
$$$$
