1d
 OpenBabel02232411173D

 52 54  0  0  1  0  0  0  0  0999 V2000
   18.0260  -13.0490   21.5750 N   0  0  0  0  0  0  0  0  0  0  0  0
   17.7130  -11.7210   20.9620 C   0  0  2  0  0  0  0  0  0  0  0  0
   17.1490  -13.6410   22.4430 C   0  0  0  0  0  0  0  0  0  0  0  0
   16.1200  -13.0630   22.7890 O   0  0  0  0  0  0  0  0  0  0  0  0
   16.2920  -11.7300   20.3350 C   0  0  0  0  0  0  0  0  0  0  0  0
   15.8530  -12.6670   19.6820 O   0  0  0  0  0  0  0  0  0  0  0  0
   18.8020  -11.4940   19.8970 C   0  0  0  0  0  0  0  0  0  0  0  0
   17.4760  -15.0550   22.9920 C   0  0  2  0  0  0  0  0  0  0  0  0
   15.5800  -10.5560   20.5120 N   0  0  0  0  0  0  0  0  0  0  0  0
   19.8940  -12.5570   20.1210 C   0  0  0  0  0  0  0  0  0  0  0  0
   16.1720  -15.8750   22.9530 N   0  3  0  0  0  0  0  0  0  0  0  0
   17.9900  -15.0060   24.4440 C   0  0  0  0  0  0  0  0  0  0  0  0
   14.1530  -10.4260   20.1260 C   0  0  0  0  0  0  0  0  0  0  0  0
   19.2840  -13.6430   21.0270 C   0  0  0  0  0  0  0  0  0  0  0  0
   19.4370  -14.5830   24.5420 C   0  0  0  0  0  0  0  0  0  0  0  0
   13.2290  -10.4120   21.3210 C   0  0  0  0  0  0  0  0  0  0  0  0
   20.4500  -15.3760   23.9810 C   0  0  0  0  0  0  0  0  0  0  0  0
   12.2880  -11.4300   21.5200 C   0  0  0  0  0  0  0  0  0  0  0  0
   21.7890  -15.0050   24.1210 C   0  0  0  0  0  0  0  0  0  0  0  0
   11.3830  -11.3450   22.5830 C   0  0  0  0  0  0  0  0  0  0  0  0
   22.1320  -13.8330   24.8080 C   0  0  0  0  0  0  0  0  0  0  0  0
   11.4150  -10.2550   23.4600 C   0  0  0  0  0  0  0  0  0  0  0  0
   21.1250  -13.0440   25.3690 C   0  0  0  0  0  0  0  0  0  0  0  0
   12.3810   -9.2690   23.2700 C   0  0  0  0  0  0  0  0  0  0  0  0
   19.7850  -13.4290   25.2530 C   0  0  0  0  0  0  0  0  0  0  0  0
   13.2830   -9.3280   22.2130 C   0  0  0  0  0  0  0  0  0  0  0  0
   17.7900  -10.9360   21.7630 H   0  0  0  0  0  0  0  0  0  0  0  0
   18.3850  -11.5890   18.8670 H   0  0  0  0  0  0  0  0  0  0  0  0
   19.2200  -10.4750   20.0340 H   0  0  0  0  0  0  0  0  0  0  0  0
   18.2150  -15.6170   22.3490 H   0  0  0  0  0  0  0  0  0  0  0  0
   15.9800   -9.7950   21.0910 H   0  0  0  0  0  0  0  0  0  0  0  0
   20.2180  -13.0090   19.1520 H   0  0  0  0  0  0  0  0  0  0  0  0
   20.7850  -12.1060   20.6140 H   0  0  0  0  0  0  0  0  0  0  0  0
   16.3390  -16.8220   23.4050 H   0  0  0  0  0  0  0  0  0  0  0  0
   15.3920  -15.3550   23.4750 H   0  0  0  0  0  0  0  0  0  0  0  0
   15.8760  -16.0460   21.9510 H   0  0  0  0  0  0  0  0  0  0  0  0
   17.3400  -14.3280   25.0530 H   0  0  0  0  0  0  0  0  0  0  0  0
   17.9220  -16.0400   24.8900 H   0  0  0  0  0  0  0  0  0  0  0  0
   14.0420   -9.4470   19.5800 H   0  0  0  0  0  0  0  0  0  0  0  0
   13.8860  -11.2600   19.4180 H   0  0  0  0  0  0  0  0  0  0  0  0
   19.9760  -13.9010   21.8690 H   0  0  0  0  0  0  0  0  0  0  0  0
   19.0480  -14.5650   20.4350 H   0  0  0  0  0  0  0  0  0  0  0  0
   20.1930  -16.2930   23.4440 H   0  0  0  0  0  0  0  0  0  0  0  0
   12.2480  -12.2930   20.8490 H   0  0  0  0  0  0  0  0  0  0  0  0
   22.5640  -15.6460   23.6890 H   0  0  0  0  0  0  0  0  0  0  0  0
   10.6400  -12.1360   22.7310 H   0  0  0  0  0  0  0  0  0  0  0  0
   23.1830  -13.5510   24.9090 H   0  0  0  0  0  0  0  0  0  0  0  0
   21.3610  -12.1220   25.9050 H   0  0  0  0  0  0  0  0  0  0  0  0
   12.5480   -7.6790   24.6430 I   0  0  0  0  0  0  0  0  0  0  0  0
   19.0130  -12.8400   25.7390 H   0  0  0  0  0  0  0  0  0  0  0  0
   14.0330   -8.5480   22.0650 H   0  0  0  0  0  0  0  0  0  0  0  0
   10.6800  -10.1950   24.2720 H   0  0  0  0  0  0  0  0  0  0  0  0
  1  2  1  0  0  0  0
  1 14  1  0  0  0  0
  1  3  1  0  0  0  0
  2  5  1  0  0  0  0
  2  7  1  0  0  0  0
  2 27  1  1  0  0  0
  3  8  1  0  0  0  0
  3  4  2  0  0  0  0
  5  6  2  0  0  0  0
  5  9  1  0  0  0  0
  7 10  1  0  0  0  0
  7 28  1  0  0  0  0
  7 29  1  0  0  0  0
  8 11  1  0  0  0  0
  8 12  1  0  0  0  0
  8 30  1  6  0  0  0
  9 13  1  0  0  0  0
  9 31  1  0  0  0  0
 10 14  1  0  0  0  0
 10 32  1  0  0  0  0
 10 33  1  0  0  0  0
 11 34  1  0  0  0  0
 11 35  1  0  0  0  0
 11 36  1  0  0  0  0
 12 15  1  0  0  0  0
 12 37  1  0  0  0  0
 12 38  1  0  0  0  0
 13 16  1  0  0  0  0
 13 39  1  0  0  0  0
 13 40  1  0  0  0  0
 14 41  1  0  0  0  0
 14 42  1  0  0  0  0
 15 17  2  0  0  0  0
 15 25  1  0  0  0  0
 16 18  2  0  0  0  0
 16 26  1  0  0  0  0
 17 19  1  0  0  0  0
 17 43  1  0  0  0  0
 18 20  1  0  0  0  0
 18 44  1  0  0  0  0
 19 21  2  0  0  0  0
 19 45  1  0  0  0  0
 20 22  2  0  0  0  0
 20 46  1  0  0  0  0
 21 23  1  0  0  0  0
 21 47  1  0  0  0  0
 22 24  1  0  0  0  0
 22 52  1  0  0  0  0
 23 25  2  0  0  0  0
 23 48  1  0  0  0  0
 24 26  2  0  0  0  0
 24 49  1  0  0  0  0
 25 50  1  0  0  0  0
 26 51  1  0  0  0  0
M  CHG  1  11   1
M  END
$$$$
