27
 OpenBabel02232411163D
Structure written by MMmdl.
 38 40  0  0  0  0  0  0  0  0999 V2000
    3.4060  -48.2280    7.0930 O   0  0  0  0  0  0  0  0  0  0  0  0
    3.0070  -49.1850    6.4170 C   0  0  0  0  0  0  0  0  0  0  0  0
    3.7090  -49.9970    5.7830 O   0  5  0  0  0  0  0  0  0  0  0  0
    1.4910  -49.4600    6.3520 C   0  0  0  0  0  0  0  0  0  0  0  0
   -0.3770  -50.7750    6.5230 C   0  0  0  0  0  0  0  0  0  0  0  0
   -1.3050  -51.8050    6.7520 C   0  0  0  0  0  0  0  0  0  0  0  0
   -2.6350  -51.5430    6.4610 C   0  0  0  0  0  0  0  0  0  0  0  0
   -3.0420  -50.2880    5.9490 C   0  0  0  0  0  0  0  0  0  0  0  0
   -2.1300  -49.2660    5.7250 C   0  0  0  0  0  0  0  0  0  0  0  0
   -0.7740  -49.4850    6.0160 C   0  0  0  0  0  0  0  0  0  0  0  0
    0.4230  -48.6730    5.9370 C   0  0  0  0  0  0  0  0  0  0  0  0
    0.4240  -47.2550    5.4900 C   0  0  0  0  0  0  0  0  0  0  0  0
    0.3200  -46.2550    6.6560 C   0  0  0  0  0  0  0  0  0  0  0  0
   -1.0120  -46.3090    7.4040 C   0  0  0  0  0  0  0  0  0  0  0  0
   -1.9790  -45.7430    6.4460 O   0  0  0  0  0  0  0  0  0  0  0  0
   -3.2350  -45.4440    6.8880 C   0  0  0  0  0  0  0  0  0  0  0  0
   -3.7910  -45.8630    8.1090 C   0  0  0  0  0  0  0  0  0  0  0  0
   -5.0950  -45.4680    8.4220 C   0  0  0  0  0  0  0  0  0  0  0  0
   -5.8350  -44.6730    7.5440 C   0  0  0  0  0  0  0  0  0  0  0  0
   -5.2720  -44.2740    6.3220 C   0  0  0  0  0  0  0  0  0  0  0  0
   -3.9790  -44.6520    5.9800 C   0  0  0  0  0  0  0  0  0  0  0  0
   -0.9990  -52.7740    7.1470 H   0  0  0  0  0  0  0  0  0  0  0  0
   -3.3910  -52.3120    6.6300 H   0  0  0  0  0  0  0  0  0  0  0  0
   -4.0990  -50.1320    5.7310 H   0  0  0  0  0  0  0  0  0  0  0  0
   -2.4710  -48.3070    5.3320 H   0  0  0  0  0  0  0  0  0  0  0  0
   -0.4580  -47.0910    4.8180 H   0  0  0  0  0  0  0  0  0  0  0  0
    1.3530  -47.0220    4.9170 H   0  0  0  0  0  0  0  0  0  0  0  0
    0.4410  -45.2210    6.2550 H   0  0  0  0  0  0  0  0  0  0  0  0
    1.1320  -46.4620    7.3950 H   0  0  0  0  0  0  0  0  0  0  0  0
   -1.0060  -45.6480    8.2970 H   0  0  0  0  0  0  0  0  0  0  0  0
   -1.3480  -47.3430    7.6290 H   0  0  0  0  0  0  0  0  0  0  0  0
   -3.2480  -46.4970    8.8050 H   0  0  0  0  0  0  0  0  0  0  0  0
   -3.5430  -44.3520    5.0320 H   0  0  0  0  0  0  0  0  0  0  0  0
    1.0130  -50.7340    6.7190 N   0  0  0  0  0  0  0  0  0  0  0  0
    1.5520  -51.5230    7.0560 H   0  0  0  0  0  0  0  0  0  0  0  0
   -5.8600  -43.6640    5.6340 H   0  0  0  0  0  0  0  0  0  0  0  0
   -6.8490  -44.3720    7.7990 H   0  0  0  0  0  0  0  0  0  0  0  0
   -5.5450  -45.7890    9.3640 H   0  0  0  0  0  0  0  0  0  0  0  0
  1  2  2  0  0  0  0
  2  3  1  0  0  0  0
  2  4  1  0  0  0  0
  4 11  2  0  0  0  0
  4 34  1  0  0  0  0
  5  6  2  0  0  0  0
  5 10  1  0  0  0  0
  5 34  1  0  0  0  0
  6  7  1  0  0  0  0
  6 22  1  0  0  0  0
  7  8  2  0  0  0  0
  7 23  1  0  0  0  0
  8  9  1  0  0  0  0
  8 24  1  0  0  0  0
  9 10  2  0  0  0  0
  9 25  1  0  0  0  0
 10 11  1  0  0  0  0
 11 12  1  0  0  0  0
 12 26  1  0  0  0  0
 12 27  1  0  0  0  0
 12 13  1  0  0  0  0
 13 14  1  0  0  0  0
 13 28  1  0  0  0  0
 13 29  1  0  0  0  0
 14 15  1  0  0  0  0
 14 30  1  0  0  0  0
 14 31  1  0  0  0  0
 15 16  1  0  0  0  0
 16 17  2  0  0  0  0
 16 21  1  0  0  0  0
 17 18  1  0  0  0  0
 17 32  1  0  0  0  0
 18 19  2  0  0  0  0
 18 38  1  0  0  0  0
 19 20  1  0  0  0  0
 19 37  1  0  0  0  0
 20 21  2  0  0  0  0
 20 36  1  0  0  0  0
 21 33  1  0  0  0  0
 34 35  1  0  0  0  0
M  CHG  1   3  -1
M  END
$$$$
