p38a_3flw
 OpenBabel02232411163D
Structure written by MMmdl.
 49 51  0  0  0  0  0  0  0  0999 V2000
   36.3520   36.0270   15.8050 C   0  0  0  0  0  0  0  0  0  0  0  0
   37.6430   36.5360   15.9980 C   0  0  0  0  0  0  0  0  0  0  0  0
   33.4040   39.9530   27.5550 C   0  0  0  0  0  0  0  0  0  0  0  0
   34.8140   40.3750   27.9990 C   0  0  0  0  0  0  0  0  0  0  0  0
   31.9200   38.6850   25.9100 C   0  0  0  0  0  0  0  0  0  0  0  0
   34.0680   34.9670   23.8570 C   0  0  0  0  0  0  0  0  0  0  0  0
   34.4790   35.0340   16.8440 F   0  0  0  0  0  0  0  0  0  0  0  0
   35.6920   35.5620   16.9380 C   0  0  0  0  0  0  0  0  0  0  0  0
   38.2710   37.0590   14.9480 F   0  0  0  0  0  0  0  0  0  0  0  0
   38.2850   36.5550   17.2390 C   0  0  0  0  0  0  0  0  0  0  0  0
   37.5880   36.1150   18.3700 C   0  0  0  0  0  0  0  0  0  0  0  0
   36.2890   35.6230   18.2140 C   0  0  0  0  0  0  0  0  0  0  0  0
   35.5460   35.0370   19.2480 O   0  0  0  0  0  0  0  0  0  0  0  0
   35.1960   35.8790   20.3000 C   0  0  0  0  0  0  0  0  0  0  0  0
   35.2820   37.2280   20.3520 C   0  0  0  0  0  0  0  0  0  0  0  0
   34.9040   37.8960   21.5690 C   0  0  0  0  0  0  0  0  0  0  0  0
   34.8790   39.3090   21.7030 C   0  0  0  0  0  0  0  0  0  0  0  0
   34.5820   39.9290   22.8570 N   0  0  0  0  0  0  0  0  0  0  0  0
   34.6400   35.0370   21.3970 C   0  0  0  0  0  0  0  0  0  0  0  0
   34.3630   33.8620   21.3060 O   0  0  0  0  0  0  0  0  0  0  0  0
   34.4350   35.7370   22.6370 N   0  0  0  0  0  0  0  0  0  0  0  0
   34.5460   37.1340   22.7210 C   0  0  0  0  0  0  0  0  0  0  0  0
   34.2650   37.7370   23.9230 N   0  0  0  0  0  0  0  0  0  0  0  0
   34.3080   39.1120   23.9680 C   0  0  0  0  0  0  0  0  0  0  0  0
   34.1020   39.7530   25.1840 N   0  0  0  0  0  0  0  0  0  0  0  0
   33.3750   39.0580   26.2960 C   0  0  0  0  0  0  0  0  0  0  0  0
   31.2880   39.6200   24.8720 C   0  0  0  0  0  0  0  0  0  0  0  0
   29.9570   39.1690   24.5740 O   0  0  0  0  0  0  0  0  0  0  0  0
   35.0930   41.7460   27.6440 O   0  0  0  0  0  0  0  0  0  0  0  0
   35.8800   36.0210   14.8190 H   0  0  0  0  0  0  0  0  0  0  0  0
   32.9290   39.3690   28.3860 H   0  0  0  0  0  0  0  0  0  0  0  0
   32.7890   40.8700   27.3910 H   0  0  0  0  0  0  0  0  0  0  0  0
   34.9000   40.3770   29.1110 H   0  0  0  0  0  0  0  0  0  0  0  0
   35.5990   39.7370   27.5320 H   0  0  0  0  0  0  0  0  0  0  0  0
   31.9220   37.6410   25.5030 H   0  0  0  0  0  0  0  0  0  0  0  0
   31.2900   38.6700   26.8330 H   0  0  0  0  0  0  0  0  0  0  0  0
   34.7930   35.1950   24.6860 H   0  0  0  0  0  0  0  0  0  0  0  0
   33.0390   35.2570   24.2050 H   0  0  0  0  0  0  0  0  0  0  0  0
   34.0900   33.8670   23.6450 H   0  0  0  0  0  0  0  0  0  0  0  0
   39.3060   36.9360   17.3360 H   0  0  0  0  0  0  0  0  0  0  0  0
   38.0560   36.1820   19.3540 H   0  0  0  0  0  0  0  0  0  0  0  0
   35.6400   37.8380   19.5200 H   0  0  0  0  0  0  0  0  0  0  0  0
   35.0880   39.9460   20.8290 H   0  0  0  0  0  0  0  0  0  0  0  0
   33.9430   40.7810   25.1580 H   0  0  0  0  0  0  0  0  0  0  0  0
   33.9360   38.1070   26.5260 H   0  0  0  0  0  0  0  0  0  0  0  0
   31.2690   40.6680   25.2370 H   0  0  0  0  0  0  0  0  0  0  0  0
   31.7900   39.5340   23.8830 H   0  0  0  0  0  0  0  0  0  0  0  0
   29.3100   39.7590   25.0450 H   0  0  0  0  0  0  0  0  0  0  0  0
   34.6600   41.9160   26.7580 H   0  0  0  0  0  0  0  0  0  0  0  0
  1  2  2  0  0  0  0
  1  8  1  0  0  0  0
  1 30  1  0  0  0  0
  2  9  1  0  0  0  0
  2 10  1  0  0  0  0
  3  4  1  0  0  0  0
  3 26  1  0  0  0  0
  3 31  1  0  0  0  0
  3 32  1  0  0  0  0
  4 29  1  0  0  0  0
  4 33  1  0  0  0  0
  4 34  1  0  0  0  0
  5 26  1  0  0  0  0
  5 27  1  0  0  0  0
  5 35  1  0  0  0  0
  5 36  1  0  0  0  0
  6 21  1  0  0  0  0
  6 37  1  0  0  0  0
  6 38  1  0  0  0  0
  6 39  1  0  0  0  0
  7  8  1  0  0  0  0
  8 12  2  0  0  0  0
 10 11  2  0  0  0  0
 10 40  1  0  0  0  0
 11 12  1  0  0  0  0
 11 41  1  0  0  0  0
 12 13  1  0  0  0  0
 13 14  1  0  0  0  0
 14 15  2  0  0  0  0
 14 19  1  0  0  0  0
 15 16  1  0  0  0  0
 15 42  1  0  0  0  0
 16 17  2  0  0  0  0
 16 22  1  0  0  0  0
 17 18  1  0  0  0  0
 17 43  1  0  0  0  0
 18 24  2  0  0  0  0
 19 20  2  0  0  0  0
 19 21  1  0  0  0  0
 21 22  1  0  0  0  0
 22 23  2  0  0  0  0
 23 24  1  0  0  0  0
 24 25  1  0  0  0  0
 25 26  1  0  0  0  0
 25 44  1  0  0  0  0
 26 45  1  0  0  0  0
 27 28  1  0  0  0  0
 27 46  1  0  0  0  0
 27 47  1  0  0  0  0
 28 48  1  0  0  0  0
 29 49  1  0  0  0  0
M  END
$$$$
