p38a_2u
 OpenBabel02232411163D
Structure written by MMmdl.
 64 68  0  0  0  0  0  0  0  0999 V2000
   38.2110   36.4480   17.2800 C   0  0  0  0  0  0  0  0  0  0  0  0
   34.4750   35.1070   21.4480 C   0  0  0  0  0  0  0  0  0  0  0  0
   37.4490   36.0220   18.3650 C   0  0  0  0  0  0  0  0  0  0  0  0
   34.0380   39.2580   23.8980 C   0  0  0  0  0  0  0  0  0  0  0  0
   34.6730   37.9810   21.5390 C   0  0  0  0  0  0  0  0  0  0  0  0
   35.0670   37.2890   20.3420 C   0  0  0  0  0  0  0  0  0  0  0  0
   37.5390   36.5660   16.0550 C   0  0  0  0  0  0  0  0  0  0  0  0
   36.1880   36.2560   15.8860 C   0  0  0  0  0  0  0  0  0  0  0  0
   35.4470   35.8220   16.9910 C   0  0  0  0  0  0  0  0  0  0  0  0
   34.2720   37.2420   22.6900 C   0  0  0  0  0  0  0  0  0  0  0  0
   34.6750   39.3980   21.6480 C   0  0  0  0  0  0  0  0  0  0  0  0
   35.0120   35.9390   20.3300 C   0  0  0  0  0  0  0  0  0  0  0  0
   36.0840   35.6940   18.2300 C   0  0  0  0  0  0  0  0  0  0  0  0
   38.0100   35.9220   19.5630 F   0  0  0  0  0  0  0  0  0  0  0  0
   35.3870   35.0930   19.2870 O   0  0  0  0  0  0  0  0  0  0  0  0
   34.3730   40.0490   22.7810 N   0  0  0  0  0  0  0  0  0  0  0  0
   34.2950   33.9110   21.3770 O   0  0  0  0  0  0  0  0  0  0  0  0
   34.1720   35.8330   22.6530 N   0  0  0  0  0  0  0  0  0  0  0  0
   33.9730   37.8780   23.8670 N   0  0  0  0  0  0  0  0  0  0  0  0
   33.6940   39.9010   25.0640 N   0  0  0  0  0  0  0  0  0  0  0  0
   39.2670   36.7130   17.3850 H   0  0  0  0  0  0  0  0  0  0  0  0
   35.4070   37.8820   19.4900 H   0  0  0  0  0  0  0  0  0  0  0  0
   35.6990   36.3620   14.9140 H   0  0  0  0  0  0  0  0  0  0  0  0
   34.3800   35.6020   16.8810 H   0  0  0  0  0  0  0  0  0  0  0  0
   34.9300   40.0110   20.7670 H   0  0  0  0  0  0  0  0  0  0  0  0
   33.8380   40.9260   25.1470 H   0  0  0  0  0  0  0  0  0  0  0  0
   38.2190   37.0330   15.0110 F   0  0  0  0  0  0  0  0  0  0  0  0
   32.4170   39.3070   28.6160 C   0  0  0  0  0  0  0  0  0  0  0  0
   32.5290   39.9620   27.2340 C   0  0  0  0  0  0  0  0  0  0  0  0
   33.5150   39.1660   26.3540 C   0  0  0  0  0  0  0  0  0  0  0  0
   34.8700   38.9970   27.0770 C   0  0  0  0  0  0  0  0  0  0  0  0
   34.6450   38.3910   28.4680 C   0  0  0  0  0  0  0  0  0  0  0  0
   33.7110   39.1720   29.2480 O   0  0  0  0  0  0  0  0  0  0  0  0
   31.9410   38.3010   28.5420 H   0  0  0  0  0  0  0  0  0  0  0  0
   31.8740   39.9670   29.3300 H   0  0  0  0  0  0  0  0  0  0  0  0
   32.8860   41.0130   27.3520 H   0  0  0  0  0  0  0  0  0  0  0  0
   31.5280   39.9840   26.7430 H   0  0  0  0  0  0  0  0  0  0  0  0
   33.0770   38.1510   26.1340 H   0  0  0  0  0  0  0  0  0  0  0  0
   35.5310   38.3180   26.4860 H   0  0  0  0  0  0  0  0  0  0  0  0
   35.3760   39.9870   27.1690 H   0  0  0  0  0  0  0  0  0  0  0  0
   34.2650   37.3450   28.3870 H   0  0  0  0  0  0  0  0  0  0  0  0
   35.5720   38.4430   29.0840 H   0  0  0  0  0  0  0  0  0  0  0  0
   33.6790   33.2650   25.5330 C   0  0  0  0  0  0  0  0  0  0  0  0
   34.3300   33.8580   24.2590 C   0  0  0  0  0  0  0  0  0  0  0  0
   33.5730   35.1350   23.8580 C   0  0  0  0  0  0  0  0  0  0  0  0
   32.0900   34.8080   23.5980 C   0  0  0  0  0  0  0  0  0  0  0  0
   31.4670   34.2150   24.8780 C   0  0  0  0  0  0  0  0  0  0  0  0
   33.8630   33.9680   26.3920 H   0  0  0  0  0  0  0  0  0  0  0  0
   34.1930   32.2910   25.7420 H   0  0  0  0  0  0  0  0  0  0  0  0
   34.2930   33.0960   23.4440 H   0  0  0  0  0  0  0  0  0  0  0  0
   35.3960   34.0900   24.4920 H   0  0  0  0  0  0  0  0  0  0  0  0
   33.6430   35.8510   24.7330 H   0  0  0  0  0  0  0  0  0  0  0  0
   31.5300   35.7370   23.3370 H   0  0  0  0  0  0  0  0  0  0  0  0
   31.9910   34.0790   22.7600 H   0  0  0  0  0  0  0  0  0  0  0  0
   31.4590   35.0120   25.6730 H   0  0  0  0  0  0  0  0  0  0  0  0
   30.4120   33.9110   24.6350 H   0  0  0  0  0  0  0  0  0  0  0  0
   32.2170   33.0020   25.3370 N   0  0  0  0  0  0  0  0  0  0  0  0
   31.4160   32.0470   26.5410 S   0  0  0  0  0  0  0  0  0  0  0  0
   30.0570   31.7960   26.0170 O   0  0  0  0  0  0  0  0  0  0  0  0
   31.3960   32.7450   27.8420 O   0  0  0  0  0  0  0  0  0  0  0  0
   32.2960   30.5660   26.6710 C   0  0  0  0  0  0  0  0  0  0  0  0
   33.2780   30.6760   27.2020 H   0  0  0  0  0  0  0  0  0  0  0  0
   31.7190   29.7880   27.2380 H   0  0  0  0  0  0  0  0  0  0  0  0
   32.5360   30.1180   25.6680 H   0  0  0  0  0  0  0  0  0  0  0  0
  1  3  2  0  0  0  0
  1  7  1  0  0  0  0
  1 21  1  0  0  0  0
  2 12  1  0  0  0  0
  2 17  2  0  0  0  0
  2 18  1  0  0  0  0
  3 13  1  0  0  0  0
  3 14  1  0  0  0  0
  4 16  2  0  0  0  0
  4 19  1  0  0  0  0
  4 20  1  0  0  0  0
  5  6  1  0  0  0  0
  5 10  1  0  0  0  0
  5 11  2  0  0  0  0
  6 12  2  0  0  0  0
  6 22  1  0  0  0  0
  7  8  2  0  0  0  0
  7 27  1  0  0  0  0
  8  9  1  0  0  0  0
  8 23  1  0  0  0  0
  9 13  2  0  0  0  0
  9 24  1  0  0  0  0
 10 18  1  0  0  0  0
 10 19  2  0  0  0  0
 11 16  1  0  0  0  0
 11 25  1  0  0  0  0
 12 15  1  0  0  0  0
 13 15  1  0  0  0  0
 18 45  1  0  0  0  0
 20 26  1  0  0  0  0
 20 30  1  0  0  0  0
 28 29  1  0  0  0  0
 28 33  1  0  0  0  0
 28 34  1  0  0  0  0
 28 35  1  0  0  0  0
 29 30  1  0  0  0  0
 29 36  1  0  0  0  0
 29 37  1  0  0  0  0
 30 31  1  0  0  0  0
 30 38  1  0  0  0  0
 31 32  1  0  0  0  0
 31 39  1  0  0  0  0
 31 40  1  0  0  0  0
 32 33  1  0  0  0  0
 32 41  1  0  0  0  0
 32 42  1  0  0  0  0
 43 44  1  0  0  0  0
 43 48  1  0  0  0  0
 43 49  1  0  0  0  0
 43 57  1  0  0  0  0
 44 45  1  0  0  0  0
 44 50  1  0  0  0  0
 44 51  1  0  0  0  0
 45 46  1  0  0  0  0
 45 52  1  0  0  0  0
 46 47  1  0  0  0  0
 46 53  1  0  0  0  0
 46 54  1  0  0  0  0
 47 55  1  0  0  0  0
 47 56  1  0  0  0  0
 47 57  1  0  0  0  0
 57 58  1  0  0  0  0
 58 59  2  0  0  0  0
 58 60  2  0  0  0  0
 58 61  1  0  0  0  0
 61 62  1  0  0  0  0
 61 63  1  0  0  0  0
 61 64  1  0  0  0  0
M  END
$$$$
