1oiy
 OpenBabel02232411153D
Structure written by MMmdl.
 49 52  0  0  0  0  0  0  0  0999 V2000
    1.9340   28.8750    6.8290 C   0  0  0  0  0  0  0  0  0  0  0  0
   -1.5810   31.4360    7.9590 C   0  0  0  0  0  0  0  0  0  0  0  0
   -0.0180   25.9880    8.9400 C   0  0  0  0  0  0  0  0  0  0  0  0
   -0.8320   25.2770   10.0290 C   0  0  0  0  0  0  0  0  0  0  0  0
   -0.6790   23.7550    9.8040 C   0  0  0  0  0  0  0  0  0  0  0  0
   -1.3670   22.9550   10.9180 C   0  0  0  0  0  0  0  0  0  0  0  0
   -0.8640   23.3700   12.3090 C   0  0  0  0  0  0  0  0  0  0  0  0
   -1.0420   24.8800   12.5350 C   0  0  0  0  0  0  0  0  0  0  0  0
   -0.3510   25.6960   11.4320 C   0  0  0  0  0  0  0  0  0  0  0  0
    5.3640   25.7330    5.2960 C   0  0  0  0  0  0  0  0  0  0  0  0
    5.2570   24.8440    6.3770 C   0  0  0  0  0  0  0  0  0  0  0  0
    4.4880   25.1970    7.4950 C   0  0  0  0  0  0  0  0  0  0  0  0
    3.7900   26.4080    7.5240 C   0  0  0  0  0  0  0  0  0  0  0  0
    1.2320   27.9130    7.5460 N   0  0  0  0  0  0  0  0  0  0  0  0
    0.0260   28.2320    8.0850 C   0  0  0  0  0  0  0  0  0  0  0  0
   -0.6510   27.3270    8.8050 O   0  0  0  0  0  0  0  0  0  0  0  0
   -0.5160   29.5330    7.9040 C   0  0  0  0  0  0  0  0  0  0  0  0
   -1.6720   30.1690    8.3710 N   0  0  0  0  0  0  0  0  0  0  0  0
   -0.3700   31.6850    7.2210 N   0  0  0  0  0  0  0  0  0  0  0  0
    0.3070   30.4700    7.1570 C   0  0  0  0  0  0  0  0  0  0  0  0
    1.5090   30.1680    6.5680 N   0  0  0  0  0  0  0  0  0  0  0  0
    3.1910   28.5330    6.3380 N   0  0  0  0  0  0  0  0  0  0  0  0
    3.8500   27.2670    6.4140 C   0  0  0  0  0  0  0  0  0  0  0  0
    4.6710   26.9350    5.3110 C   0  0  0  0  0  0  0  0  0  0  0  0
   -2.2940   32.2340    8.1480 H   0  0  0  0  0  0  0  0  0  0  0  0
    1.0450   26.1200    9.2390 H   0  0  0  0  0  0  0  0  0  0  0  0
   -0.1200   25.5070    7.9470 H   0  0  0  0  0  0  0  0  0  0  0  0
   -1.9100   25.5530    9.9330 H   0  0  0  0  0  0  0  0  0  0  0  0
   -1.1330   23.4800    8.8260 H   0  0  0  0  0  0  0  0  0  0  0  0
    0.4070   23.4910    9.7890 H   0  0  0  0  0  0  0  0  0  0  0  0
   -2.4640   23.1320   10.8690 H   0  0  0  0  0  0  0  0  0  0  0  0
   -1.1700   21.8680   10.7710 H   0  0  0  0  0  0  0  0  0  0  0  0
   -1.4300   22.8110   13.0890 H   0  0  0  0  0  0  0  0  0  0  0  0
    0.2170   23.1120   12.3990 H   0  0  0  0  0  0  0  0  0  0  0  0
   -2.1290   25.1250   12.5660 H   0  0  0  0  0  0  0  0  0  0  0  0
   -0.5960   25.1580   13.5180 H   0  0  0  0  0  0  0  0  0  0  0  0
    0.7510   25.5390   11.5170 H   0  0  0  0  0  0  0  0  0  0  0  0
   -0.5650   26.7780   11.5890 H   0  0  0  0  0  0  0  0  0  0  0  0
    5.9880   25.4900    4.4300 H   0  0  0  0  0  0  0  0  0  0  0  0
    4.4300   24.5290    8.3620 H   0  0  0  0  0  0  0  0  0  0  0  0
    3.2020   26.6700    8.4060 H   0  0  0  0  0  0  0  0  0  0  0  0
   -0.1150   32.5690    6.7560 H   0  0  0  0  0  0  0  0  0  0  0  0
    3.6490   29.2060    5.6730 H   0  0  0  0  0  0  0  0  0  0  0  0
    4.7770   27.6190    4.4700 H   0  0  0  0  0  0  0  0  0  0  0  0
    5.3270   22.4470    6.4410 O   0  0  0  0  0  0  0  0  0  0  0  0
    5.9160   23.5090    6.2800 C   0  0  0  0  0  0  0  0  0  0  0  0
    7.2900   23.5240    6.0170 N   0  0  0  0  0  0  0  0  0  0  0  0
    7.7500   24.3900    5.7100 H   0  0  0  0  0  0  0  0  0  0  0  0
    7.7860   22.6640    5.7610 H   0  0  0  0  0  0  0  0  0  0  0  0
  1 14  2  0  0  0  0
  1 21  1  0  0  0  0
  1 22  1  0  0  0  0
  2 18  2  0  0  0  0
  2 19  1  0  0  0  0
  2 25  1  0  0  0  0
  3  4  1  0  0  0  0
  3 16  1  0  0  0  0
  3 26  1  0  0  0  0
  3 27  1  0  0  0  0
  4  5  1  0  0  0  0
  4  9  1  0  0  0  0
  4 28  1  0  0  0  0
  5  6  1  0  0  0  0
  5 29  1  0  0  0  0
  5 30  1  0  0  0  0
  6  7  1  0  0  0  0
  6 31  1  0  0  0  0
  6 32  1  0  0  0  0
  7  8  1  0  0  0  0
  7 33  1  0  0  0  0
  7 34  1  0  0  0  0
  8  9  1  0  0  0  0
  8 35  1  0  0  0  0
  8 36  1  0  0  0  0
  9 37  1  0  0  0  0
  9 38  1  0  0  0  0
 10 11  2  0  0  0  0
 10 24  1  0  0  0  0
 10 39  1  0  0  0  0
 11 12  1  0  0  0  0
 11 46  1  0  0  0  0
 12 13  2  0  0  0  0
 12 40  1  0  0  0  0
 13 23  1  0  0  0  0
 13 41  1  0  0  0  0
 14 15  1  0  0  0  0
 15 16  1  0  0  0  0
 15 17  2  0  0  0  0
 17 18  1  0  0  0  0
 17 20  1  0  0  0  0
 19 20  1  0  0  0  0
 19 42  1  0  0  0  0
 20 21  2  0  0  0  0
 22 23  1  0  0  0  0
 22 43  1  0  0  0  0
 23 24  2  0  0  0  0
 24 44  1  0  0  0  0
 45 46  2  0  0  0  0
 46 47  1  0  0  0  0
 47 48  1  0  0  0  0
 47 49  1  0  0  0  0
M  END
$$$$
