18659-1
 OpenBabel02232411163D
Structure written by MMmdl.
 50 51  0  0  0  0  0  0  0  0999 V2000
   22.6530   13.8880   28.8680 C   0  0  0  0  0  0  0  0  0  0  0  0
   23.0250   13.6660   30.2460 O   0  0  0  0  0  0  0  0  0  0  0  0
   23.9350   12.5730   30.4410 C   0  0  0  0  0  0  0  0  0  0  0  0
   23.2750   11.1890   30.3390 C   0  0  0  0  0  0  0  0  0  0  0  0
   22.1330   11.2600   31.2670 O   0  0  0  0  0  0  0  0  0  0  0  0
   21.5080   10.1070   31.6020 C   0  0  0  0  0  0  0  0  0  0  0  0
   21.9630    8.9290   31.1160 N   0  0  0  0  0  0  0  0  0  0  0  0
   21.2440    7.7860   31.4410 C   0  0  0  0  0  0  0  0  0  0  0  0
   20.1130    7.8140   32.2510 C   0  0  0  0  0  0  0  0  0  0  0  0
   19.6470    9.0560   32.7570 C   0  0  0  0  0  0  0  0  0  0  0  0
   18.5110    9.0900   33.5260 N   0  0  0  0  0  0  0  0  0  0  0  0
   20.3580   10.2560   32.4320 C   0  0  0  0  0  0  0  0  0  0  0  0
   19.9670   11.5500   32.8370 C   0  0  0  0  0  0  0  0  0  0  0  0
   19.6950   12.6400   33.1260 N   0  0  0  0  0  0  0  0  0  0  0  0
   21.7920    6.6310   30.8430 N   0  0  0  0  0  0  0  0  0  0  0  0
   21.1930    5.3510   30.7720 C   0  0  0  0  0  0  0  0  0  0  0  0
   20.1280    5.0930   31.2920 O   0  0  0  0  0  0  0  0  0  0  0  0
   21.9820    4.3660   29.9210 C   0  0  0  0  0  0  0  0  0  0  0  0
   23.3150    4.0220   30.5190 C   0  0  0  0  0  0  0  0  0  0  0  0
   24.4420    4.8470   30.2880 C   0  0  0  0  0  0  0  0  0  0  0  0
   24.1690    5.9250   29.4510 O   0  0  0  0  0  0  0  0  0  0  0  0
   25.1840    6.9570   29.3310 C   0  0  0  0  0  0  0  0  0  0  0  0
   25.6930    4.5580   30.8450 C   0  0  0  0  0  0  0  0  0  0  0  0
   25.8420    3.4270   31.6430 C   0  0  0  0  0  0  0  0  0  0  0  0
   24.7300    2.5910   31.8610 C   0  0  0  0  0  0  0  0  0  0  0  0
   23.4750    2.8760   31.3030 C   0  0  0  0  0  0  0  0  0  0  0  0
   25.0190    1.5170   32.6780 O   0  0  0  0  0  0  0  0  0  0  0  0
   24.0200    0.4720   32.8010 C   0  0  0  0  0  0  0  0  0  0  0  0
   23.5620   14.0600   28.2490 H   0  0  0  0  0  0  0  0  0  0  0  0
   22.0700   13.0230   28.4870 H   0  0  0  0  0  0  0  0  0  0  0  0
   22.0330   14.8090   28.9400 H   0  0  0  0  0  0  0  0  0  0  0  0
   24.2980   12.7670   31.4780 H   0  0  0  0  0  0  0  0  0  0  0  0
   24.7780   12.6130   29.7040 H   0  0  0  0  0  0  0  0  0  0  0  0
   22.8670   10.9720   29.3280 H   0  0  0  0  0  0  0  0  0  0  0  0
   23.9870   10.3920   30.6660 H   0  0  0  0  0  0  0  0  0  0  0  0
   19.5650    6.9000   32.4860 H   0  0  0  0  0  0  0  0  0  0  0  0
   18.0170    8.2160   33.7900 H   0  0  0  0  0  0  0  0  0  0  0  0
   18.1180    9.9710   33.8560 H   0  0  0  0  0  0  0  0  0  0  0  0
   22.7050    6.7750   30.3420 H   0  0  0  0  0  0  0  0  0  0  0  0
   21.3720    3.4360   29.7900 H   0  0  0  0  0  0  0  0  0  0  0  0
   22.1450    4.8300   28.9100 H   0  0  0  0  0  0  0  0  0  0  0  0
   26.0590    6.5540   28.7780 H   0  0  0  0  0  0  0  0  0  0  0  0
   25.4660    7.3470   30.3330 H   0  0  0  0  0  0  0  0  0  0  0  0
   24.6470    7.7310   28.7350 H   0  0  0  0  0  0  0  0  0  0  0  0
   26.5600    5.1970   30.6590 H   0  0  0  0  0  0  0  0  0  0  0  0
   26.8130    3.1910   32.0860 H   0  0  0  0  0  0  0  0  0  0  0  0
   22.6260    2.2130   31.4750 H   0  0  0  0  0  0  0  0  0  0  0  0
   24.5560   -0.2760   33.4330 H   0  0  0  0  0  0  0  0  0  0  0  0
   23.1190    0.8600   33.3200 H   0  0  0  0  0  0  0  0  0  0  0  0
   23.7840    0.0510   31.7990 H   0  0  0  0  0  0  0  0  0  0  0  0
  1  2  1  0  0  0  0
  1 29  1  0  0  0  0
  1 30  1  0  0  0  0
  1 31  1  0  0  0  0
  2  3  1  0  0  0  0
  3  4  1  0  0  0  0
  3 32  1  0  0  0  0
  3 33  1  0  0  0  0
  4  5  1  0  0  0  0
  4 34  1  0  0  0  0
  4 35  1  0  0  0  0
  5  6  1  0  0  0  0
  6 12  2  0  0  0  0
  6  7  1  0  0  0  0
  7  8  2  0  0  0  0
  8  9  1  0  0  0  0
  8 15  1  0  0  0  0
  9 10  2  0  0  0  0
  9 36  1  0  0  0  0
 10 11  1  0  0  0  0
 10 12  1  0  0  0  0
 11 37  1  0  0  0  0
 11 38  1  0  0  0  0
 12 13  1  0  0  0  0
 13 14  3  0  0  0  0
 15 16  1  0  0  0  0
 15 39  1  0  0  0  0
 16 17  2  0  0  0  0
 16 18  1  0  0  0  0
 18 19  1  0  0  0  0
 18 40  1  0  0  0  0
 18 41  1  0  0  0  0
 19 26  2  0  0  0  0
 19 20  1  0  0  0  0
 20 21  1  0  0  0  0
 20 23  2  0  0  0  0
 21 22  1  0  0  0  0
 22 42  1  0  0  0  0
 22 43  1  0  0  0  0
 22 44  1  0  0  0  0
 23 24  1  0  0  0  0
 23 45  1  0  0  0  0
 24 25  2  0  0  0  0
 24 46  1  0  0  0  0
 25 26  1  0  0  0  0
 25 27  1  0  0  0  0
 26 47  1  0  0  0  0
 27 28  1  0  0  0  0
 28 48  1  0  0  0  0
 28 49  1  0  0  0  0
 28 50  1  0  0  0  0
M  END
$$$$
