29
 OpenBabel02232411153D
Structure written by MMmdl.
 56 59  0  0  0  0  0  0  0  0999 V2000
    1.6120   28.9720    6.8170 C   0  0  0  0  0  0  0  0  0  0  0  0
   -1.7880   31.6130    8.0820 C   0  0  0  0  0  0  0  0  0  0  0  0
   -0.3700   26.0840    8.8810 C   0  0  0  0  0  0  0  0  0  0  0  0
   -1.0690   25.3800   10.0500 C   0  0  0  0  0  0  0  0  0  0  0  0
   -0.8460   23.8610    9.8580 C   0  0  0  0  0  0  0  0  0  0  0  0
   -1.3870   23.0570   11.0470 C   0  0  0  0  0  0  0  0  0  0  0  0
   -0.8110   23.5560   12.3810 C   0  0  0  0  0  0  0  0  0  0  0  0
   -1.0750   25.0570   12.5730 C   0  0  0  0  0  0  0  0  0  0  0  0
   -0.5140   25.8740   11.4000 C   0  0  0  0  0  0  0  0  0  0  0  0
    4.0530   25.5680    8.1860 C   0  0  0  0  0  0  0  0  0  0  0  0
    4.9390   25.0150    7.2490 C   0  0  0  0  0  0  0  0  0  0  0  0
    5.1570   25.6780    6.0390 C   0  0  0  0  0  0  0  0  0  0  0  0
    4.4650   26.8460    5.7330 C   0  0  0  0  0  0  0  0  0  0  0  0
    0.8780   28.0130    7.5080 N   0  0  0  0  0  0  0  0  0  0  0  0
   -0.2910   28.3550    8.1070 C   0  0  0  0  0  0  0  0  0  0  0  0
   -0.9640   27.4490    8.8280 O   0  0  0  0  0  0  0  0  0  0  0  0
   -0.7830   29.6810    7.9800 C   0  0  0  0  0  0  0  0  0  0  0  0
   -1.9060   30.3440    8.4830 N   0  0  0  0  0  0  0  0  0  0  0  0
   -0.5900   31.8330    7.3150 N   0  0  0  0  0  0  0  0  0  0  0  0
    0.0530   30.6030    7.2280 C   0  0  0  0  0  0  0  0  0  0  0  0
    1.2410   30.2830    6.6120 N   0  0  0  0  0  0  0  0  0  0  0  0
    2.8310   28.5480    6.2790 N   0  0  0  0  0  0  0  0  0  0  0  0
    3.5360   27.3700    6.6590 C   0  0  0  0  0  0  0  0  0  0  0  0
    3.3690   26.7460    7.9100 C   0  0  0  0  0  0  0  0  0  0  0  0
   -2.4720   32.4260    8.3060 H   0  0  0  0  0  0  0  0  0  0  0  0
    0.7250   26.1670    9.0560 H   0  0  0  0  0  0  0  0  0  0  0  0
   -0.6010   25.6240    7.8980 H   0  0  0  0  0  0  0  0  0  0  0  0
   -2.1650   25.5920   10.0280 H   0  0  0  0  0  0  0  0  0  0  0  0
   -1.3620   23.5290    8.9300 H   0  0  0  0  0  0  0  0  0  0  0  0
    0.2480   23.6580    9.7570 H   0  0  0  0  0  0  0  0  0  0  0  0
   -2.4930   23.1540   11.0790 H   0  0  0  0  0  0  0  0  0  0  0  0
   -1.1270   21.9800   10.9160 H   0  0  0  0  0  0  0  0  0  0  0  0
   -1.2760   22.9890   13.2190 H   0  0  0  0  0  0  0  0  0  0  0  0
    0.2890   23.3770   12.3920 H   0  0  0  0  0  0  0  0  0  0  0  0
   -2.1710   25.2340   12.6730 H   0  0  0  0  0  0  0  0  0  0  0  0
   -0.5820   25.3950   13.5130 H   0  0  0  0  0  0  0  0  0  0  0  0
    0.5990   25.7840   11.4100 H   0  0  0  0  0  0  0  0  0  0  0  0
   -0.7820   26.9460   11.5380 H   0  0  0  0  0  0  0  0  0  0  0  0
    3.8870   25.0850    9.1580 H   0  0  0  0  0  0  0  0  0  0  0  0
    5.8710   25.3010    5.3000 H   0  0  0  0  0  0  0  0  0  0  0  0
    4.6470   27.3470    4.7810 H   0  0  0  0  0  0  0  0  0  0  0  0
   -0.3060   32.7070    6.8470 H   0  0  0  0  0  0  0  0  0  0  0  0
    3.3600   29.1840    5.6360 H   0  0  0  0  0  0  0  0  0  0  0  0
    2.7030   27.1660    8.6640 H   0  0  0  0  0  0  0  0  0  0  0  0
    5.7700   23.5880    7.7360 S   0  0  0  0  0  0  0  0  0  0  0  0
    6.8620   24.0400    8.5920 O   0  0  0  0  0  0  0  0  0  0  0  0
    4.7930   22.6270    8.2450 O   0  0  0  0  0  0  0  0  0  0  0  0
    6.4990   22.7290    6.4300 N   0  0  0  0  0  0  0  0  0  0  0  0
    5.5920   22.3840    5.3040 C   0  0  0  0  0  0  0  0  0  0  0  0
    4.6060   22.0240    5.6860 H   0  0  0  0  0  0  0  0  0  0  0  0
    5.4280   23.2380    4.5950 H   0  0  0  0  0  0  0  0  0  0  0  0
    6.0560   21.5480    4.7120 H   0  0  0  0  0  0  0  0  0  0  0  0
    7.8160   23.2310    5.9590 C   0  0  0  0  0  0  0  0  0  0  0  0
    8.1210   22.6780    5.0290 H   0  0  0  0  0  0  0  0  0  0  0  0
    7.8160   24.3240    5.7140 H   0  0  0  0  0  0  0  0  0  0  0  0
    8.5810   23.0210    6.7460 H   0  0  0  0  0  0  0  0  0  0  0  0
  1 14  2  0  0  0  0
  1 21  1  0  0  0  0
  1 22  1  0  0  0  0
  2 18  2  0  0  0  0
  2 19  1  0  0  0  0
  2 25  1  0  0  0  0
  3  4  1  0  0  0  0
  3 16  1  0  0  0  0
  3 26  1  0  0  0  0
  3 27  1  0  0  0  0
  4  5  1  0  0  0  0
  4  9  1  0  0  0  0
  4 28  1  0  0  0  0
  5  6  1  0  0  0  0
  5 29  1  0  0  0  0
  5 30  1  0  0  0  0
  6  7  1  0  0  0  0
  6 31  1  0  0  0  0
  6 32  1  0  0  0  0
  7  8  1  0  0  0  0
  7 33  1  0  0  0  0
  7 34  1  0  0  0  0
  8  9  1  0  0  0  0
  8 35  1  0  0  0  0
  8 36  1  0  0  0  0
  9 37  1  0  0  0  0
  9 38  1  0  0  0  0
 10 11  2  0  0  0  0
 10 24  1  0  0  0  0
 10 39  1  0  0  0  0
 11 12  1  0  0  0  0
 11 45  1  0  0  0  0
 12 13  2  0  0  0  0
 12 40  1  0  0  0  0
 13 23  1  0  0  0  0
 13 41  1  0  0  0  0
 14 15  1  0  0  0  0
 15 16  1  0  0  0  0
 15 17  2  0  0  0  0
 17 18  1  0  0  0  0
 17 20  1  0  0  0  0
 19 20  1  0  0  0  0
 19 42  1  0  0  0  0
 20 21  2  0  0  0  0
 22 23  1  0  0  0  0
 22 43  1  0  0  0  0
 23 24  2  0  0  0  0
 24 44  1  0  0  0  0
 45 46  2  0  0  0  0
 45 47  2  0  0  0  0
 45 48  1  0  0  0  0
 48 49  1  0  0  0  0
 48 53  1  0  0  0  0
 49 50  1  0  0  0  0
 49 51  1  0  0  0  0
 49 52  1  0  0  0  0
 53 54  1  0  0  0  0
 53 55  1  0  0  0  0
 53 56  1  0  0  0  0
M  END
$$$$
