32
 OpenBabel02232411153D
Structure written by MMmdl.
 54 57  0  0  0  0  0  0  0  0999 V2000
    1.7850   28.9020    6.7820 C   0  0  0  0  0  0  0  0  0  0  0  0
   -1.6450   31.5280    8.0040 C   0  0  0  0  0  0  0  0  0  0  0  0
   -0.1660   26.0330    8.8930 C   0  0  0  0  0  0  0  0  0  0  0  0
   -0.9140   25.3220   10.0270 C   0  0  0  0  0  0  0  0  0  0  0  0
   -0.7220   23.8020    9.8170 C   0  0  0  0  0  0  0  0  0  0  0  0
   -1.3290   22.9940   10.9720 C   0  0  0  0  0  0  0  0  0  0  0  0
   -0.7760   23.4510   12.3310 C   0  0  0  0  0  0  0  0  0  0  0  0
   -1.0050   24.9560   12.5430 C   0  0  0  0  0  0  0  0  0  0  0  0
   -0.3840   25.7750   11.4020 C   0  0  0  0  0  0  0  0  0  0  0  0
    4.2340   25.4130    7.9660 C   0  0  0  0  0  0  0  0  0  0  0  0
    5.0630   24.8440    6.9820 C   0  0  0  0  0  0  0  0  0  0  0  0
    5.2250   25.5630    5.7780 C   0  0  0  0  0  0  0  0  0  0  0  0
    4.5660   26.7810    5.5490 C   0  0  0  0  0  0  0  0  0  0  0  0
    1.0610   27.9480    7.4870 N   0  0  0  0  0  0  0  0  0  0  0  0
   -0.1160   28.2870    8.0730 C   0  0  0  0  0  0  0  0  0  0  0  0
   -0.7850   27.3840    8.8040 O   0  0  0  0  0  0  0  0  0  0  0  0
   -0.6230   29.6040    7.9230 C   0  0  0  0  0  0  0  0  0  0  0  0
   -1.7580   30.2600    8.4100 N   0  0  0  0  0  0  0  0  0  0  0  0
   -0.4380   31.7550    7.2540 N   0  0  0  0  0  0  0  0  0  0  0  0
    0.2120   30.5290    7.1730 C   0  0  0  0  0  0  0  0  0  0  0  0
    1.4050   30.2110    6.5660 N   0  0  0  0  0  0  0  0  0  0  0  0
    2.9980   28.4840    6.2250 N   0  0  0  0  0  0  0  0  0  0  0  0
    3.6960   27.2820    6.5300 C   0  0  0  0  0  0  0  0  0  0  0  0
    3.5700   26.6120    7.7670 C   0  0  0  0  0  0  0  0  0  0  0  0
   -2.3400   32.3370    8.2100 H   0  0  0  0  0  0  0  0  0  0  0  0
    0.9170   26.1420    9.1270 H   0  0  0  0  0  0  0  0  0  0  0  0
   -0.3340   25.5610    7.9040 H   0  0  0  0  0  0  0  0  0  0  0  0
   -2.0020   25.5630    9.9760 H   0  0  0  0  0  0  0  0  0  0  0  0
   -1.2090   23.4970    8.8650 H   0  0  0  0  0  0  0  0  0  0  0  0
    0.3700   23.5720    9.7540 H   0  0  0  0  0  0  0  0  0  0  0  0
   -2.4320   23.1290   10.9720 H   0  0  0  0  0  0  0  0  0  0  0  0
   -1.0960   21.9130   10.8300 H   0  0  0  0  0  0  0  0  0  0  0  0
   -1.2770   22.8810   13.1460 H   0  0  0  0  0  0  0  0  0  0  0  0
    0.3190   23.2410   12.3660 H   0  0  0  0  0  0  0  0  0  0  0  0
   -2.0980   25.1610   12.6070 H   0  0  0  0  0  0  0  0  0  0  0  0
   -0.5340   25.2660   13.5050 H   0  0  0  0  0  0  0  0  0  0  0  0
    0.7250   25.6450   11.4410 H   0  0  0  0  0  0  0  0  0  0  0  0
   -0.6160   26.8540   11.5510 H   0  0  0  0  0  0  0  0  0  0  0  0
    4.0790   24.9050    8.9250 H   0  0  0  0  0  0  0  0  0  0  0  0
    4.7060   27.3420    4.6270 H   0  0  0  0  0  0  0  0  0  0  0  0
   -0.1650   32.6340    6.7900 H   0  0  0  0  0  0  0  0  0  0  0  0
    3.4920   29.1280    5.5610 H   0  0  0  0  0  0  0  0  0  0  0  0
    2.9420   27.0140    8.5610 H   0  0  0  0  0  0  0  0  0  0  0  0
    5.8400   23.3440    7.3000 S   0  0  0  0  0  0  0  0  0  0  0  0
    5.8520   22.5100    6.0910 O   0  0  0  0  0  0  0  0  0  0  0  0
    7.1640   23.6140    7.8710 O   0  0  0  0  0  0  0  0  0  0  0  0
    4.8930   22.5070    8.4260 N   0  0  0  0  0  0  0  0  0  0  0  0
    3.9450   22.1790    8.1980 H   0  0  0  0  0  0  0  0  0  0  0  0
    4.9560   22.8040    9.4420 H   0  0  0  0  0  0  0  0  0  0  0  0
    6.0490   24.9560    4.8760 O   0  0  0  0  0  0  0  0  0  0  0  0
    6.2860   25.6070    3.5960 C   0  0  0  0  0  0  0  0  0  0  0  0
    6.9900   24.8910    3.1070 H   0  0  0  0  0  0  0  0  0  0  0  0
    5.3340   25.6840    3.0290 H   0  0  0  0  0  0  0  0  0  0  0  0
    6.7700   26.5930    3.7570 H   0  0  0  0  0  0  0  0  0  0  0  0
  1 14  2  0  0  0  0
  1 21  1  0  0  0  0
  1 22  1  0  0  0  0
  2 18  2  0  0  0  0
  2 19  1  0  0  0  0
  2 25  1  0  0  0  0
  3  4  1  0  0  0  0
  3 16  1  0  0  0  0
  3 26  1  0  0  0  0
  3 27  1  0  0  0  0
  4  5  1  0  0  0  0
  4  9  1  0  0  0  0
  4 28  1  0  0  0  0
  5  6  1  0  0  0  0
  5 29  1  0  0  0  0
  5 30  1  0  0  0  0
  6  7  1  0  0  0  0
  6 31  1  0  0  0  0
  6 32  1  0  0  0  0
  7  8  1  0  0  0  0
  7 33  1  0  0  0  0
  7 34  1  0  0  0  0
  8  9  1  0  0  0  0
  8 35  1  0  0  0  0
  8 36  1  0  0  0  0
  9 37  1  0  0  0  0
  9 38  1  0  0  0  0
 10 11  2  0  0  0  0
 10 24  1  0  0  0  0
 10 39  1  0  0  0  0
 11 12  1  0  0  0  0
 11 44  1  0  0  0  0
 12 13  2  0  0  0  0
 12 50  1  0  0  0  0
 13 23  1  0  0  0  0
 13 40  1  0  0  0  0
 14 15  1  0  0  0  0
 15 16  1  0  0  0  0
 15 17  2  0  0  0  0
 17 18  1  0  0  0  0
 17 20  1  0  0  0  0
 19 20  1  0  0  0  0
 19 41  1  0  0  0  0
 20 21  2  0  0  0  0
 22 23  1  0  0  0  0
 22 42  1  0  0  0  0
 23 24  2  0  0  0  0
 24 43  1  0  0  0  0
 44 45  2  0  0  0  0
 44 46  2  0  0  0  0
 44 47  1  0  0  0  0
 47 49  1  0  0  0  0
 47 48  1  0  0  0  0
 50 51  1  0  0  0  0
 51 52  1  0  0  0  0
 51 53  1  0  0  0  0
 51 54  1  0  0  0  0
M  END
$$$$
