23483
 OpenBabel02232411173D
Structure written by MMmdl.
 57 60  0  0  0  0  0  0  0  0999 V2000
   42.3370   18.0480   12.6720 O   0  0  0  0  0  0  0  0  0  0  0  0
   41.1990   17.7400   13.0420 C   0  0  0  0  0  0  0  0  0  0  0  0
   40.1380   18.3420   12.7700 O   0  5  0  0  0  0  0  0  0  0  0  0
   41.0270   16.4750   13.9350 C   0  0  0  0  0  0  0  0  0  0  0  0
   42.3880   15.9390   13.9150 O   0  0  0  0  0  0  0  0  0  0  0  0
   42.6300   14.9880   14.8540 C   0  0  0  0  0  0  0  0  0  0  0  0
   42.0530   13.6600   14.8170 C   0  0  0  0  0  0  0  0  0  0  0  0
   40.8670   13.1370   13.4190 Br  0  0  0  0  0  0  0  0  0  0  0  0
   42.4760   12.8240   15.8170 C   0  0  0  0  0  0  0  0  0  0  0  0
   42.0580   11.4690   16.1150 C   0  0  0  0  0  0  0  0  0  0  0  0
   42.9280   10.5090   16.6790 C   0  0  0  0  0  0  0  0  0  0  0  0
   42.4830    9.2050   16.8720 C   0  0  0  0  0  0  0  0  0  0  0  0
   41.2030    8.7910   16.4700 C   0  0  0  0  0  0  0  0  0  0  0  0
   40.3270    9.7380   15.9240 C   0  0  0  0  0  0  0  0  0  0  0  0
   38.9670    9.4760   15.5500 N   0  0  0  0  0  0  0  0  0  0  0  0
   38.5390    8.1130   15.1400 C   0  0  0  0  0  0  0  0  0  0  0  0
   37.0070    8.0230   15.3580 C   0  0  0  0  0  0  0  0  0  0  0  0
   36.4920    6.6330   14.9450 C   0  0  0  0  0  0  0  0  0  0  0  0
   36.8080    6.3800   13.5040 N   0  0  0  0  0  0  0  0  0  0  0  0
   35.8260    5.2730   12.6690 S   0  0  0  0  0  0  0  0  0  0  0  0
   34.7810    4.7600   13.5600 O   0  0  0  0  0  0  0  0  0  0  0  0
   35.3040    5.9780   11.4840 O   0  0  0  0  0  0  0  0  0  0  0  0
   36.7810    3.9280   12.1090 C   0  0  0  0  0  0  0  0  0  0  0  0
   36.5350    3.3920   10.8410 C   0  0  0  0  0  0  0  0  0  0  0  0
   37.2570    2.2800   10.3890 C   0  0  0  0  0  0  0  0  0  0  0  0
   38.2270    1.6970   11.2070 C   0  0  0  0  0  0  0  0  0  0  0  0
   38.4640    2.2210   12.4830 C   0  0  0  0  0  0  0  0  0  0  0  0
   37.7350    3.3230   12.9370 C   0  0  0  0  0  0  0  0  0  0  0  0
   38.2800    6.4380   13.2470 C   0  0  0  0  0  0  0  0  0  0  0  0
   38.8390    7.8170   13.6450 C   0  0  0  0  0  0  0  0  0  0  0  0
   40.7460   11.0830   15.8130 C   0  0  0  0  0  0  0  0  0  0  0  0
   43.6640   13.6700   16.7760 S   0  0  0  0  0  0  0  0  0  0  0  0
   43.5480   15.1540   15.8590 C   0  0  0  0  0  0  0  0  0  0  0  0
   44.3920   16.3690   16.2460 C   0  0  0  0  0  0  0  0  0  0  0  0
   45.0430   16.2400   17.3100 O   0  0  0  0  0  0  0  0  0  0  0  0
   44.4080   17.3450   15.4980 O   0  5  0  0  0  0  0  0  0  0  0  0
   40.3260   15.7490   13.4760 H   0  0  0  0  0  0  0  0  0  0  0  0
   40.7120   16.7200   14.9690 H   0  0  0  0  0  0  0  0  0  0  0  0
   43.9510   10.7630   16.9590 H   0  0  0  0  0  0  0  0  0  0  0  0
   43.1440    8.4660   17.3290 H   0  0  0  0  0  0  0  0  0  0  0  0
   40.9210    7.7470   16.5840 H   0  0  0  0  0  0  0  0  0  0  0  0
   38.6140   10.1680   14.8490 H   0  0  0  0  0  0  0  0  0  0  0  0
   39.0400    7.3380   15.7750 H   0  0  0  0  0  0  0  0  0  0  0  0
   36.7730    8.1780   16.4380 H   0  0  0  0  0  0  0  0  0  0  0  0
   36.4950    8.8030   14.7500 H   0  0  0  0  0  0  0  0  0  0  0  0
   36.9770    5.8500   15.5940 H   0  0  0  0  0  0  0  0  0  0  0  0
   35.3840    6.6010   15.0990 H   0  0  0  0  0  0  0  0  0  0  0  0
   35.7690    3.8200   10.1840 H   0  0  0  0  0  0  0  0  0  0  0  0
   37.0590    1.8550    9.4010 H   0  0  0  0  0  0  0  0  0  0  0  0
   38.7950    0.8300   10.8600 H   0  0  0  0  0  0  0  0  0  0  0  0
   39.2220    1.7660   13.1270 H   0  0  0  0  0  0  0  0  0  0  0  0
   37.9320    3.6860   13.9530 H   0  0  0  0  0  0  0  0  0  0  0  0
   38.8230    5.6580   13.8550 H   0  0  0  0  0  0  0  0  0  0  0  0
   38.4780    6.2540   12.1640 H   0  0  0  0  0  0  0  0  0  0  0  0
   38.3760    8.6080   13.0130 H   0  0  0  0  0  0  0  0  0  0  0  0
   39.9420    7.8030   13.4870 H   0  0  0  0  0  0  0  0  0  0  0  0
   40.0110   11.8210   15.4890 H   0  0  0  0  0  0  0  0  0  0  0  0
  1  2  2  0  0  0  0
  2  3  1  0  0  0  0
  2  4  1  0  0  0  0
  4  5  1  0  0  0  0
  4 37  1  0  0  0  0
  4 38  1  0  0  0  0
  5  6  1  0  0  0  0
  6 33  2  0  0  0  0
  6  7  1  0  0  0  0
  7  8  1  0  0  0  0
  7  9  2  0  0  0  0
  9 10  1  0  0  0  0
  9 32  1  0  0  0  0
 10 31  2  0  0  0  0
 10 11  1  0  0  0  0
 11 12  2  0  0  0  0
 11 39  1  0  0  0  0
 12 13  1  0  0  0  0
 12 40  1  0  0  0  0
 13 14  2  0  0  0  0
 13 41  1  0  0  0  0
 14 15  1  0  0  0  0
 14 31  1  0  0  0  0
 15 16  1  0  0  0  0
 15 42  1  0  0  0  0
 16 30  1  0  0  0  0
 16 17  1  0  0  0  0
 16 43  1  0  0  0  0
 17 18  1  0  0  0  0
 17 44  1  0  0  0  0
 17 45  1  0  0  0  0
 18 19  1  0  0  0  0
 18 46  1  0  0  0  0
 18 47  1  0  0  0  0
 19 20  1  0  0  0  0
 19 29  1  0  0  0  0
 20 21  2  0  0  0  0
 20 22  2  0  0  0  0
 20 23  1  0  0  0  0
 23 28  2  0  0  0  0
 23 24  1  0  0  0  0
 24 25  2  0  0  0  0
 24 48  1  0  0  0  0
 25 26  1  0  0  0  0
 25 49  1  0  0  0  0
 26 27  2  0  0  0  0
 26 50  1  0  0  0  0
 27 28  1  0  0  0  0
 27 51  1  0  0  0  0
 28 52  1  0  0  0  0
 29 30  1  0  0  0  0
 29 53  1  0  0  0  0
 29 54  1  0  0  0  0
 30 55  1  0  0  0  0
 30 56  1  0  0  0  0
 31 57  1  0  0  0  0
 32 33  1  0  0  0  0
 33 34  1  0  0  0  0
 34 35  2  0  0  0  0
 34 36  1  0  0  0  0
M  CHG  2   3  -1  36  -1
M  END
$$$$
