67
 OpenBabel02232411163D
Structure written by MMmdl.
 43 45  0  0  0  0  0  0  0  0999 V2000
    3.4930  -48.3910    7.1360 O   0  0  0  0  0  0  0  0  0  0  0  0
    3.0540  -49.4150    6.6000 C   0  0  0  0  0  0  0  0  0  0  0  0
    3.6780  -50.4170    6.2210 O   0  5  0  0  0  0  0  0  0  0  0  0
    1.5200  -49.5040    6.3900 C   0  0  0  0  0  0  0  0  0  0  0  0
   -0.3410  -50.7510    6.5080 C   0  0  0  0  0  0  0  0  0  0  0  0
   -1.2420  -51.7860    6.7400 C   0  0  0  0  0  0  0  0  0  0  0  0
   -2.5790  -51.5140    6.4380 C   0  0  0  0  0  0  0  0  0  0  0  0
   -2.9760  -50.2650    5.9250 C   0  0  0  0  0  0  0  0  0  0  0  0
   -2.0590  -49.2370    5.6980 C   0  0  0  0  0  0  0  0  0  0  0  0
   -0.7130  -49.4700    5.9950 C   0  0  0  0  0  0  0  0  0  0  0  0
    0.5150  -48.6880    5.9400 C   0  0  0  0  0  0  0  0  0  0  0  0
    0.5820  -47.2760    5.4830 C   0  0  0  0  0  0  0  0  0  0  0  0
    0.5440  -46.2720    6.6500 C   0  0  0  0  0  0  0  0  0  0  0  0
   -0.7790  -46.2910    7.4120 C   0  0  0  0  0  0  0  0  0  0  0  0
   -1.7390  -45.7320    6.4400 O   0  0  0  0  0  0  0  0  0  0  0  0
   -3.0080  -45.4800    6.8540 C   0  0  0  0  0  0  0  0  0  0  0  0
   -3.5440  -45.8510    8.0980 C   0  0  0  0  0  0  0  0  0  0  0  0
   -4.8720  -45.5170    8.3930 C   0  0  0  0  0  0  0  0  0  0  0  0
   -5.4740  -45.8760    9.7110 C   0  0  0  0  0  0  0  0  0  0  0  0
   -5.6300  -44.8410    7.4250 C   0  0  0  0  0  0  0  0  0  0  0  0
   -7.2850  -44.4950    7.7660 Cl  0  0  0  0  0  0  0  0  0  0  0  0
   -5.1050  -44.4680    6.1720 C   0  0  0  0  0  0  0  0  0  0  0  0
   -5.9590  -43.7990    5.1470 C   0  0  0  0  0  0  0  0  0  0  0  0
   -3.7780  -44.7890    5.8930 C   0  0  0  0  0  0  0  0  0  0  0  0
   -0.9500  -52.7570    7.1390 H   0  0  0  0  0  0  0  0  0  0  0  0
   -3.3370  -52.2810    6.6050 H   0  0  0  0  0  0  0  0  0  0  0  0
   -4.0320  -50.0980    5.7030 H   0  0  0  0  0  0  0  0  0  0  0  0
   -2.3980  -48.2780    5.3040 H   0  0  0  0  0  0  0  0  0  0  0  0
   -0.3020  -47.0690    4.8240 H   0  0  0  0  0  0  0  0  0  0  0  0
    1.5150  -47.0950    4.8960 H   0  0  0  0  0  0  0  0  0  0  0  0
    0.6910  -45.2410    6.2470 H   0  0  0  0  0  0  0  0  0  0  0  0
    1.3620  -46.5100    7.3730 H   0  0  0  0  0  0  0  0  0  0  0  0
   -0.7670  -45.6080    8.2880 H   0  0  0  0  0  0  0  0  0  0  0  0
   -1.1300  -47.3160    7.6530 H   0  0  0  0  0  0  0  0  0  0  0  0
   -2.9640  -46.4090    8.8270 H   0  0  0  0  0  0  0  0  0  0  0  0
   -5.9000  -44.9710   10.2070 H   0  0  0  0  0  0  0  0  0  0  0  0
   -6.3070  -46.6060    9.5620 H   0  0  0  0  0  0  0  0  0  0  0  0
   -4.7240  -46.3430   10.3890 H   0  0  0  0  0  0  0  0  0  0  0  0
   -5.3490  -43.4650    4.2760 H   0  0  0  0  0  0  0  0  0  0  0  0
   -6.7350  -44.5210    4.7880 H   0  0  0  0  0  0  0  0  0  0  0  0
   -6.4820  -42.9120    5.5750 H   0  0  0  0  0  0  0  0  0  0  0  0
   -3.3360  -44.5300    4.9370 H   0  0  0  0  0  0  0  0  0  0  0  0
    1.0360  -50.7840    6.7410 O   0  0  0  0  0  0  0  0  0  0  0  0
  1  2  2  0  0  0  0
  2  3  1  0  0  0  0
  2  4  1  0  0  0  0
  4 11  2  0  0  0  0
  4 43  1  0  0  0  0
  5  6  2  0  0  0  0
  5 10  1  0  0  0  0
  5 43  1  0  0  0  0
  6  7  1  0  0  0  0
  6 25  1  0  0  0  0
  7  8  2  0  0  0  0
  7 26  1  0  0  0  0
  8  9  1  0  0  0  0
  8 27  1  0  0  0  0
  9 10  2  0  0  0  0
  9 28  1  0  0  0  0
 10 11  1  0  0  0  0
 11 12  1  0  0  0  0
 12 29  1  0  0  0  0
 12 30  1  0  0  0  0
 12 13  1  0  0  0  0
 13 14  1  0  0  0  0
 13 31  1  0  0  0  0
 13 32  1  0  0  0  0
 14 15  1  0  0  0  0
 14 33  1  0  0  0  0
 14 34  1  0  0  0  0
 15 16  1  0  0  0  0
 16 17  2  0  0  0  0
 16 24  1  0  0  0  0
 17 18  1  0  0  0  0
 17 35  1  0  0  0  0
 18 19  1  0  0  0  0
 18 20  2  0  0  0  0
 19 36  1  0  0  0  0
 19 37  1  0  0  0  0
 19 38  1  0  0  0  0
 20 21  1  0  0  0  0
 20 22  1  0  0  0  0
 22 23  1  0  0  0  0
 22 24  2  0  0  0  0
 23 39  1  0  0  0  0
 23 40  1  0  0  0  0
 23 41  1  0  0  0  0
 24 42  1  0  0  0  0
M  CHG  1   3  -1
M  END
$$$$
