42
 OpenBabel02232411163D
Structure written by MMmdl.
 44 47  0  0  0  0  0  0  0  0999 V2000
    3.6800  -49.9020    5.8840 O   0  0  0  0  0  0  0  0  0  0  0  0
    2.9470  -49.0660    6.4490 C   0  0  0  0  0  0  0  0  0  0  0  0
    3.3140  -48.0600    7.0710 O   0  5  0  0  0  0  0  0  0  0  0  0
    1.4390  -49.3780    6.3660 C   0  0  0  0  0  0  0  0  0  0  0  0
   -0.3940  -50.7430    6.5300 C   0  0  0  0  0  0  0  0  0  0  0  0
   -1.2950  -51.7990    6.7510 C   0  0  0  0  0  0  0  0  0  0  0  0
   -2.6320  -51.5690    6.4630 C   0  0  0  0  0  0  0  0  0  0  0  0
   -3.0730  -50.3210    5.9640 C   0  0  0  0  0  0  0  0  0  0  0  0
   -2.1880  -49.2730    5.7480 C   0  0  0  0  0  0  0  0  0  0  0  0
   -0.8250  -49.4620    6.0310 C   0  0  0  0  0  0  0  0  0  0  0  0
    0.3510  -48.6200    5.9490 C   0  0  0  0  0  0  0  0  0  0  0  0
    0.3090  -47.2070    5.4870 C   0  0  0  0  0  0  0  0  0  0  0  0
    0.2800  -46.1920    6.6430 C   0  0  0  0  0  0  0  0  0  0  0  0
   -0.8900  -46.3580    7.6050 C   0  0  0  0  0  0  0  0  0  0  0  0
   -2.0700  -45.8070    6.9060 O   0  0  0  0  0  0  0  0  0  0  0  0
   -3.2570  -45.8170    7.5760 C   0  0  0  0  0  0  0  0  0  0  0  0
   -5.7960  -45.6070    8.7710 C   0  0  0  0  0  0  0  0  0  0  0  0
   -4.8010  -46.3490    9.3580 C   0  0  0  0  0  0  0  0  0  0  0  0
   -3.5140  -46.4600    8.7740 C   0  0  0  0  0  0  0  0  0  0  0  0
   -0.9630  -52.7630    7.1370 H   0  0  0  0  0  0  0  0  0  0  0  0
   -3.3660  -52.3600    6.6240 H   0  0  0  0  0  0  0  0  0  0  0  0
   -4.1340  -50.1890    5.7490 H   0  0  0  0  0  0  0  0  0  0  0  0
   -2.5540  -48.3180    5.3690 H   0  0  0  0  0  0  0  0  0  0  0  0
   -0.6150  -47.0610    4.8700 H   0  0  0  0  0  0  0  0  0  0  0  0
    1.1980  -46.9780    4.8510 H   0  0  0  0  0  0  0  0  0  0  0  0
    0.2430  -45.1620    6.2190 H   0  0  0  0  0  0  0  0  0  0  0  0
    1.2170  -46.3100    7.2460 H   0  0  0  0  0  0  0  0  0  0  0  0
   -0.7610  -45.7280    8.5120 H   0  0  0  0  0  0  0  0  0  0  0  0
   -1.1130  -47.4220    7.8260 H   0  0  0  0  0  0  0  0  0  0  0  0
   -2.7770  -47.0630    9.2930 H   0  0  0  0  0  0  0  0  0  0  0  0
   -5.5650  -44.9640    7.5150 C   0  0  0  0  0  0  0  0  0  0  0  0
   -4.2900  -45.0640    6.8980 C   0  0  0  0  0  0  0  0  0  0  0  0
   -4.0760  -44.4620    5.6250 C   0  0  0  0  0  0  0  0  0  0  0  0
   -5.0870  -43.7740    4.9980 C   0  0  0  0  0  0  0  0  0  0  0  0
   -6.3670  -43.6800    5.6080 C   0  0  0  0  0  0  0  0  0  0  0  0
   -6.6030  -44.2560    6.8330 C   0  0  0  0  0  0  0  0  0  0  0  0
   -3.1040  -44.5800    5.1450 H   0  0  0  0  0  0  0  0  0  0  0  0
   -4.9250  -43.3020    4.0320 H   0  0  0  0  0  0  0  0  0  0  0  0
   -7.1590  -43.1490    5.0840 H   0  0  0  0  0  0  0  0  0  0  0  0
   -7.5880  -44.1940    7.2950 H   0  0  0  0  0  0  0  0  0  0  0  0
   -4.9950  -46.8760   10.2960 H   0  0  0  0  0  0  0  0  0  0  0  0
   -6.7760  -45.5150    9.2370 H   0  0  0  0  0  0  0  0  0  0  0  0
    0.9930  -50.6650    6.7300 N   0  0  0  0  0  0  0  0  0  0  0  0
    1.5560  -51.4430    7.0540 H   0  0  0  0  0  0  0  0  0  0  0  0
  1  2  2  0  0  0  0
  2  3  1  0  0  0  0
  2  4  1  0  0  0  0
  4 11  2  0  0  0  0
  4 43  1  0  0  0  0
  5  6  2  0  0  0  0
  5 10  1  0  0  0  0
  5 43  1  0  0  0  0
  6  7  1  0  0  0  0
  6 20  1  0  0  0  0
  7  8  2  0  0  0  0
  7 21  1  0  0  0  0
  8  9  1  0  0  0  0
  8 22  1  0  0  0  0
  9 10  2  0  0  0  0
  9 23  1  0  0  0  0
 10 11  1  0  0  0  0
 11 12  1  0  0  0  0
 12 24  1  0  0  0  0
 12 25  1  0  0  0  0
 12 13  1  0  0  0  0
 13 14  1  0  0  0  0
 13 26  1  0  0  0  0
 13 27  1  0  0  0  0
 14 15  1  0  0  0  0
 14 28  1  0  0  0  0
 14 29  1  0  0  0  0
 15 16  1  0  0  0  0
 16 19  2  0  0  0  0
 16 32  1  0  0  0  0
 17 18  2  0  0  0  0
 17 31  1  0  0  0  0
 17 42  1  0  0  0  0
 18 19  1  0  0  0  0
 18 41  1  0  0  0  0
 19 30  1  0  0  0  0
 31 32  2  0  0  0  0
 31 36  1  0  0  0  0
 32 33  1  0  0  0  0
 33 34  2  0  0  0  0
 33 37  1  0  0  0  0
 34 35  1  0  0  0  0
 34 38  1  0  0  0  0
 35 36  2  0  0  0  0
 35 39  1  0  0  0  0
 36 40  1  0  0  0  0
 43 44  1  0  0  0  0
M  CHG  1   3  -1
M  END
$$$$
