CAT-17g
 OpenBabel02232411143D
Structure written by MMmdl.
 42 45  0  0  1  0  0  0  0  0999 V2000
   11.6300   -2.3230    1.2390 C   0  0  0  0  0  0  0  0  0  0  0  0
   12.9800   -2.3190    0.6380 N   0  0  0  0  0  0  0  0  0  0  0  0
   14.1650   -2.3190    1.3670 C   0  0  0  0  0  0  0  0  0  0  0  0
   14.3040   -2.4210    2.7180 N   0  0  0  0  0  0  0  0  0  0  0  0
   15.2620   -2.2570    0.4950 N   0  3  0  0  0  0  0  0  0  0  0  0
   14.8200   -2.5890   -0.9110 C   0  0  1  0  0  0  0  0  0  0  0  0
   15.4130   -1.5770   -1.8670 C   0  0  0  0  0  0  0  0  0  0  0  0
   16.2730   -1.9670   -2.9010 C   0  0  0  0  0  0  0  0  0  0  0  0
   16.7380   -1.0080   -3.8080 C   0  0  0  0  0  0  0  0  0  0  0  0
   16.3700    0.3330   -3.6790 C   0  0  0  0  0  0  0  0  0  0  0  0
   15.5530    0.7390   -2.6100 C   0  0  0  0  0  0  0  0  0  0  0  0
   15.1780    2.1530   -2.4150 C   0  0  0  0  0  0  0  0  0  0  0  0
   14.6260    2.9150   -3.4680 C   0  0  0  0  0  0  0  0  0  0  0  0
   14.1680    4.1820   -3.2960 N   0  0  0  0  0  0  0  0  0  0  0  0
   14.2520    4.7500   -2.0700 C   0  0  0  0  0  0  0  0  0  0  0  0
   14.8480    4.0550   -0.9950 C   0  0  0  0  0  0  0  0  0  0  0  0
   14.9510    4.6490    0.1910 F   0  0  0  0  0  0  0  0  0  0  0  0
   15.3200    2.7530   -1.1530 C   0  0  0  0  0  0  0  0  0  0  0  0
   15.0710   -0.2250   -1.7130 C   0  0  0  0  0  0  0  0  0  0  0  0
   15.0390   -4.0500   -1.2740 C   0  0  0  0  0  0  0  0  0  0  0  0
   16.2580   -4.8040   -0.7730 C   0  0  0  0  0  0  0  0  0  0  0  0
   14.8910   -5.1480   -0.2260 C   0  0  0  0  0  0  0  0  0  0  0  0
   13.2670   -2.4110   -0.8110 C   0  0  0  0  0  0  0  0  0  0  0  0
   12.4070   -2.3570   -1.6290 O   0  0  0  0  0  0  0  0  0  0  0  0
   11.6760   -2.6050    2.3230 H   0  0  0  0  0  0  0  0  0  0  0  0
   11.1760   -1.3010    1.1370 H   0  0  0  0  0  0  0  0  0  0  0  0
   10.9920   -3.0790    0.7040 H   0  0  0  0  0  0  0  0  0  0  0  0
   13.5810   -2.0440    3.3800 H   0  0  0  0  0  0  0  0  0  0  0  0
   16.1900   -2.6100    0.8600 H   0  0  0  0  0  0  0  0  0  0  0  0
   16.5820   -3.0090   -3.0000 H   0  0  0  0  0  0  0  0  0  0  0  0
   17.4000   -1.3150   -4.6240 H   0  0  0  0  0  0  0  0  0  0  0  0
   16.7250    1.0610   -4.4140 H   0  0  0  0  0  0  0  0  0  0  0  0
   14.5340    2.4890   -4.4810 H   0  0  0  0  0  0  0  0  0  0  0  0
   13.8240    5.7580   -1.9470 H   0  0  0  0  0  0  0  0  0  0  0  0
   15.7760    2.2000   -0.3270 H   0  0  0  0  0  0  0  0  0  0  0  0
   14.4280    0.0740   -0.8850 H   0  0  0  0  0  0  0  0  0  0  0  0
   14.6830   -4.2760   -2.2960 H   0  0  0  0  0  0  0  0  0  0  0  0
   16.7730   -5.4800   -1.4540 H   0  0  0  0  0  0  0  0  0  0  0  0
   16.9770   -4.2890   -0.1320 H   0  0  0  0  0  0  0  0  0  0  0  0
   14.6570   -4.8790    0.8110 H   0  0  0  0  0  0  0  0  0  0  0  0
   14.4040   -6.0850   -0.5250 H   0  0  0  0  0  0  0  0  0  0  0  0
   15.2810   -2.3640    3.1260 H   0  0  0  0  0  0  0  0  0  0  0  0
  1  2  1  0  0  0  0
  1 25  1  0  0  0  0
  1 26  1  0  0  0  0
  1 27  1  0  0  0  0
  2  3  1  0  0  0  0
  2 23  1  0  0  0  0
  3  4  1  0  0  0  0
  3  5  2  0  0  0  0
  4 28  1  0  0  0  0
  4 42  1  0  0  0  0
  5  6  1  0  0  0  0
  5 29  1  0  0  0  0
  6  7  1  6  0  0  0
  6 20  1  0  0  0  0
  6 23  1  0  0  0  0
  7  8  2  0  0  0  0
  7 19  1  0  0  0  0
  8  9  1  0  0  0  0
  8 30  1  0  0  0  0
  9 10  2  0  0  0  0
  9 31  1  0  0  0  0
 10 11  1  0  0  0  0
 10 32  1  0  0  0  0
 11 12  1  0  0  0  0
 11 19  2  0  0  0  0
 12 13  2  0  0  0  0
 12 18  1  0  0  0  0
 13 14  1  0  0  0  0
 13 33  1  0  0  0  0
 14 15  2  0  0  0  0
 15 16  1  0  0  0  0
 15 34  1  0  0  0  0
 16 18  2  0  0  0  0
 16 17  1  0  0  0  0
 18 35  1  0  0  0  0
 19 36  1  0  0  0  0
 20 21  1  0  0  0  0
 20 22  1  0  0  0  0
 20 37  1  0  0  0  0
 21 22  1  0  0  0  0
 21 38  1  0  0  0  0
 21 39  1  0  0  0  0
 22 40  1  0  0  0  0
 22 41  1  0  0  0  0
 23 24  2  0  0  0  0
M  CHG  1   5   1
M  END
$$$$
