p38a_2l
 OpenBabel02232411163D
Structure written by MMmdl.
 49 52  0  0  0  0  0  0  0  0999 V2000
   36.3630   36.0630   15.7840 C   0  0  0  0  0  0  0  0  0  0  0  0
   34.5620   35.0410   21.3330 C   0  0  0  0  0  0  0  0  0  0  0  0
   35.6930   35.5920   16.9090 C   0  0  0  0  0  0  0  0  0  0  0  0
   34.0670   39.1300   23.8640 C   0  0  0  0  0  0  0  0  0  0  0  0
   34.7680   37.9030   21.4970 C   0  0  0  0  0  0  0  0  0  0  0  0
   35.2080   37.2350   20.3010 C   0  0  0  0  0  0  0  0  0  0  0  0
   37.6570   36.5580   15.9900 C   0  0  0  0  0  0  0  0  0  0  0  0
   38.2920   36.5630   17.2350 C   0  0  0  0  0  0  0  0  0  0  0  0
   37.5830   36.1200   18.3570 C   0  0  0  0  0  0  0  0  0  0  0  0
   34.3600   37.1430   22.6330 C   0  0  0  0  0  0  0  0  0  0  0  0
   34.7370   39.3180   21.6250 C   0  0  0  0  0  0  0  0  0  0  0  0
   35.1440   35.8850   20.2520 C   0  0  0  0  0  0  0  0  0  0  0  0
   36.2820   35.6370   18.1890 C   0  0  0  0  0  0  0  0  0  0  0  0
   34.4770   35.0740   16.8010 F   0  0  0  0  0  0  0  0  0  0  0  0
   35.5360   35.0430   19.2140 O   0  0  0  0  0  0  0  0  0  0  0  0
   34.3980   39.9440   22.7620 N   0  0  0  0  0  0  0  0  0  0  0  0
   34.3310   33.8550   21.2410 O   0  0  0  0  0  0  0  0  0  0  0  0
   34.2880   35.7410   22.5600 N   0  0  0  0  0  0  0  0  0  0  0  0
   34.0340   37.7510   23.8200 N   0  0  0  0  0  0  0  0  0  0  0  0
   33.6830   39.7640   25.0270 N   0  0  0  0  0  0  0  0  0  0  0  0
   35.8970   36.0700   14.7960 H   0  0  0  0  0  0  0  0  0  0  0  0
   35.5940   37.8460   19.4820 H   0  0  0  0  0  0  0  0  0  0  0  0
   39.3140   36.9360   17.3420 H   0  0  0  0  0  0  0  0  0  0  0  0
   38.0430   36.1780   19.3470 H   0  0  0  0  0  0  0  0  0  0  0  0
   34.9980   39.9510   20.7610 H   0  0  0  0  0  0  0  0  0  0  0  0
   33.8060   40.7930   25.1070 H   0  0  0  0  0  0  0  0  0  0  0  0
   38.2960   37.0840   14.9470 F   0  0  0  0  0  0  0  0  0  0  0  0
   32.4470   39.1120   28.5820 C   0  0  0  0  0  0  0  0  0  0  0  0
   32.4990   39.7470   27.1870 C   0  0  0  0  0  0  0  0  0  0  0  0
   33.5660   39.0350   26.3270 C   0  0  0  0  0  0  0  0  0  0  0  0
   34.9270   39.0230   27.0600 C   0  0  0  0  0  0  0  0  0  0  0  0
   34.7590   38.4280   28.4630 C   0  0  0  0  0  0  0  0  0  0  0  0
   33.7430   39.1240   29.2220 O   0  0  0  0  0  0  0  0  0  0  0  0
   32.0770   38.0610   28.5290 H   0  0  0  0  0  0  0  0  0  0  0  0
   31.8330   39.7260   29.2810 H   0  0  0  0  0  0  0  0  0  0  0  0
   32.7470   40.8310   27.2800 H   0  0  0  0  0  0  0  0  0  0  0  0
   31.5010   39.6550   26.6950 H   0  0  0  0  0  0  0  0  0  0  0  0
   33.2350   37.9780   26.1270 H   0  0  0  0  0  0  0  0  0  0  0  0
   35.6590   38.4060   26.4870 H   0  0  0  0  0  0  0  0  0  0  0  0
   35.3250   40.0630   27.1350 H   0  0  0  0  0  0  0  0  0  0  0  0
   34.4900   37.3470   28.4070 H   0  0  0  0  0  0  0  0  0  0  0  0
   35.6710   38.5910   29.0830 H   0  0  0  0  0  0  0  0  0  0  0  0
   33.7860   34.9540   23.7390 C   0  0  0  0  0  0  0  0  0  0  0  0
   34.1950   33.9090   23.6570 H   0  0  0  0  0  0  0  0  0  0  0  0
   34.1880   35.4230   24.6820 H   0  0  0  0  0  0  0  0  0  0  0  0
   32.2610   34.9190   23.7880 C   0  0  0  0  0  0  0  0  0  0  0  0
   31.8430   35.9400   23.9580 H   0  0  0  0  0  0  0  0  0  0  0  0
   31.8230   34.5000   22.8570 H   0  0  0  0  0  0  0  0  0  0  0  0
   31.9430   34.2790   24.6490 H   0  0  0  0  0  0  0  0  0  0  0  0
  1  3  2  0  0  0  0
  1  7  1  0  0  0  0
  1 21  1  0  0  0  0
  2 12  1  0  0  0  0
  2 17  2  0  0  0  0
  2 18  1  0  0  0  0
  3 13  1  0  0  0  0
  3 14  1  0  0  0  0
  4 16  2  0  0  0  0
  4 19  1  0  0  0  0
  4 20  1  0  0  0  0
  5  6  1  0  0  0  0
  5 10  1  0  0  0  0
  5 11  2  0  0  0  0
  6 12  2  0  0  0  0
  6 22  1  0  0  0  0
  7  8  2  0  0  0  0
  7 27  1  0  0  0  0
  8  9  1  0  0  0  0
  8 23  1  0  0  0  0
  9 13  2  0  0  0  0
  9 24  1  0  0  0  0
 10 18  1  0  0  0  0
 10 19  2  0  0  0  0
 11 16  1  0  0  0  0
 11 25  1  0  0  0  0
 12 15  1  0  0  0  0
 13 15  1  0  0  0  0
 18 43  1  0  0  0  0
 20 26  1  0  0  0  0
 20 30  1  0  0  0  0
 28 29  1  0  0  0  0
 28 33  1  0  0  0  0
 28 34  1  0  0  0  0
 28 35  1  0  0  0  0
 29 30  1  0  0  0  0
 29 36  1  0  0  0  0
 29 37  1  0  0  0  0
 30 31  1  0  0  0  0
 30 38  1  0  0  0  0
 31 32  1  0  0  0  0
 31 39  1  0  0  0  0
 31 40  1  0  0  0  0
 32 33  1  0  0  0  0
 32 41  1  0  0  0  0
 32 42  1  0  0  0  0
 43 44  1  0  0  0  0
 43 45  1  0  0  0  0
 43 46  1  0  0  0  0
 46 47  1  0  0  0  0
 46 48  1  0  0  0  0
 46 49  1  0  0  0  0
M  END
$$$$
