18638-1
 OpenBabel02232411163D
Structure written by MMmdl.
 52 53  0  0  0  0  0  0  0  0999 V2000
   24.0110   12.4620   30.3330 C   0  0  0  0  0  0  0  0  0  0  0  0
   23.5460   11.0220   30.4400 C   0  0  0  0  0  0  0  0  0  0  0  0
   22.2920   11.1330   31.2290 O   0  0  0  0  0  0  0  0  0  0  0  0
   21.6540   10.0000   31.5880 C   0  0  0  0  0  0  0  0  0  0  0  0
   22.1280    8.8030   31.1630 N   0  0  0  0  0  0  0  0  0  0  0  0
   21.3940    7.6760   31.4990 C   0  0  0  0  0  0  0  0  0  0  0  0
   20.2370    7.7320   32.2700 C   0  0  0  0  0  0  0  0  0  0  0  0
   19.7520    8.9890   32.7180 C   0  0  0  0  0  0  0  0  0  0  0  0
   18.5940    9.0450   33.4520 N   0  0  0  0  0  0  0  0  0  0  0  0
   20.4750   10.1760   32.3740 C   0  0  0  0  0  0  0  0  0  0  0  0
   20.0740   11.4800   32.7340 C   0  0  0  0  0  0  0  0  0  0  0  0
   19.7910   12.5740   32.9950 N   0  0  0  0  0  0  0  0  0  0  0  0
   21.9410    6.4880   30.9520 N   0  0  0  0  0  0  0  0  0  0  0  0
   21.2660    5.2510   30.8640 C   0  0  0  0  0  0  0  0  0  0  0  0
   20.1890    5.0510   31.3840 O   0  0  0  0  0  0  0  0  0  0  0  0
   21.9580    4.2250   29.9810 C   0  0  0  0  0  0  0  0  0  0  0  0
   23.3160    3.7790   30.4350 C   0  0  0  0  0  0  0  0  0  0  0  0
   24.4820    4.4770   30.0030 C   0  0  0  0  0  0  0  0  0  0  0  0
   24.1830    5.6150   29.2610 O   0  0  0  0  0  0  0  0  0  0  0  0
   25.2380    6.6030   29.1020 C   0  0  0  0  0  0  0  0  0  0  0  0
   25.7600    3.9900   30.2600 C   0  0  0  0  0  0  0  0  0  0  0  0
   25.9340    2.8130   31.0100 C   0  0  0  0  0  0  0  0  0  0  0  0
   27.5640    2.1840   31.1840 S   0  0  0  0  0  0  0  0  0  0  0  0
   28.5530    3.2750   30.9990 O   0  0  0  0  0  0  0  0  0  0  0  0
   27.7190    1.5620   32.5190 O   0  0  0  0  0  0  0  0  0  0  0  0
   27.6930    1.0090   29.9140 C   0  0  0  0  0  0  0  0  0  0  0  0
   24.7910    2.1730   31.5090 C   0  0  0  0  0  0  0  0  0  0  0  0
   23.4870    2.6370   31.2020 C   0  0  0  0  0  0  0  0  0  0  0  0
   25.0310    1.1020   32.3340 O   0  0  0  0  0  0  0  0  0  0  0  0
   23.9430    0.1670   32.5790 C   0  0  0  0  0  0  0  0  0  0  0  0
   24.9120   12.4980   29.6700 H   0  0  0  0  0  0  0  0  0  0  0  0
   23.2210   13.1040   29.8780 H   0  0  0  0  0  0  0  0  0  0  0  0
   24.2830   12.8770   31.3290 H   0  0  0  0  0  0  0  0  0  0  0  0
   23.2820   10.5840   29.4520 H   0  0  0  0  0  0  0  0  0  0  0  0
   24.2600   10.3820   31.0050 H   0  0  0  0  0  0  0  0  0  0  0  0
   19.6800    6.8260   32.5190 H   0  0  0  0  0  0  0  0  0  0  0  0
   18.0900    8.1800   33.7240 H   0  0  0  0  0  0  0  0  0  0  0  0
   18.1980    9.9360   33.7530 H   0  0  0  0  0  0  0  0  0  0  0  0
   22.8560    6.5860   30.4530 H   0  0  0  0  0  0  0  0  0  0  0  0
   21.2920    3.3250   29.9010 H   0  0  0  0  0  0  0  0  0  0  0  0
   22.0560    4.6850   28.9560 H   0  0  0  0  0  0  0  0  0  0  0  0
   24.6650    7.4770   28.7130 H   0  0  0  0  0  0  0  0  0  0  0  0
   25.7090    6.8340   30.0810 H   0  0  0  0  0  0  0  0  0  0  0  0
   25.9730    6.2320   28.3580 H   0  0  0  0  0  0  0  0  0  0  0  0
   26.6310    4.5180   29.8520 H   0  0  0  0  0  0  0  0  0  0  0  0
   27.5970    1.4780   28.8980 H   0  0  0  0  0  0  0  0  0  0  0  0
   28.6760    0.4700   29.9210 H   0  0  0  0  0  0  0  0  0  0  0  0
   26.8950    0.2240   29.9710 H   0  0  0  0  0  0  0  0  0  0  0  0
   22.6140    2.0860   31.5540 H   0  0  0  0  0  0  0  0  0  0  0  0
   23.5660   -0.2280   31.6120 H   0  0  0  0  0  0  0  0  0  0  0  0
   23.1460    0.6460   33.1870 H   0  0  0  0  0  0  0  0  0  0  0  0
   24.4610   -0.6330   33.1610 H   0  0  0  0  0  0  0  0  0  0  0  0
  1  2  1  0  0  0  0
  1 31  1  0  0  0  0
  1 32  1  0  0  0  0
  1 33  1  0  0  0  0
  2  3  1  0  0  0  0
  2 34  1  0  0  0  0
  2 35  1  0  0  0  0
  3  4  1  0  0  0  0
  4 10  2  0  0  0  0
  4  5  1  0  0  0  0
  5  6  2  0  0  0  0
  6  7  1  0  0  0  0
  6 13  1  0  0  0  0
  7  8  2  0  0  0  0
  7 36  1  0  0  0  0
  8  9  1  0  0  0  0
  8 10  1  0  0  0  0
  9 37  1  0  0  0  0
  9 38  1  0  0  0  0
 10 11  1  0  0  0  0
 11 12  3  0  0  0  0
 13 14  1  0  0  0  0
 13 39  1  0  0  0  0
 14 15  2  0  0  0  0
 14 16  1  0  0  0  0
 16 17  1  0  0  0  0
 16 40  1  0  0  0  0
 16 41  1  0  0  0  0
 17 28  2  0  0  0  0
 17 18  1  0  0  0  0
 18 19  1  0  0  0  0
 18 21  2  0  0  0  0
 19 20  1  0  0  0  0
 20 42  1  0  0  0  0
 20 43  1  0  0  0  0
 20 44  1  0  0  0  0
 21 22  1  0  0  0  0
 21 45  1  0  0  0  0
 22 23  1  0  0  0  0
 22 27  2  0  0  0  0
 23 24  2  0  0  0  0
 23 25  2  0  0  0  0
 23 26  1  0  0  0  0
 26 46  1  0  0  0  0
 26 47  1  0  0  0  0
 26 48  1  0  0  0  0
 27 28  1  0  0  0  0
 27 29  1  0  0  0  0
 28 49  1  0  0  0  0
 29 30  1  0  0  0  0
 30 50  1  0  0  0  0
 30 51  1  0  0  0  0
 30 52  1  0  0  0  0
M  END
$$$$
