18638-1
 OpenBabel02232411163D
Structure written by MMmdl.
 52 53  0  0  0  0  0  0  0  0999 V2000
   24.5790   10.5380   30.7380 C   0  0  0  0  0  0  0  0  0  0  0  0
   23.2930   11.0310   30.1100 C   0  0  0  0  0  0  0  0  0  0  0  0
   22.2040   11.1180   31.1050 O   0  0  0  0  0  0  0  0  0  0  0  0
   21.5880    9.9860   31.5160 C   0  0  0  0  0  0  0  0  0  0  0  0
   22.0350    8.7830   31.0830 N   0  0  0  0  0  0  0  0  0  0  0  0
   21.3220    7.6610   31.4690 C   0  0  0  0  0  0  0  0  0  0  0  0
   20.1870    7.7290   32.2710 C   0  0  0  0  0  0  0  0  0  0  0  0
   19.7230    8.9940   32.7200 C   0  0  0  0  0  0  0  0  0  0  0  0
   18.5780    9.0640   33.4730 N   0  0  0  0  0  0  0  0  0  0  0  0
   20.4460   10.1730   32.3520 C   0  0  0  0  0  0  0  0  0  0  0  0
   20.0690   11.4810   32.7250 C   0  0  0  0  0  0  0  0  0  0  0  0
   19.8040   12.5770   32.9950 N   0  0  0  0  0  0  0  0  0  0  0  0
   21.8680    6.4660   30.9370 N   0  0  0  0  0  0  0  0  0  0  0  0
   21.1690    5.2450   30.8090 C   0  0  0  0  0  0  0  0  0  0  0  0
   20.0710    5.0680   31.2930 O   0  0  0  0  0  0  0  0  0  0  0  0
   21.8650    4.2190   29.9310 C   0  0  0  0  0  0  0  0  0  0  0  0
   23.2070    3.7500   30.4090 C   0  0  0  0  0  0  0  0  0  0  0  0
   24.3880    4.4390   30.0000 C   0  0  0  0  0  0  0  0  0  0  0  0
   24.1160    5.5760   29.2430 O   0  0  0  0  0  0  0  0  0  0  0  0
   25.1650    6.5810   29.1750 C   0  0  0  0  0  0  0  0  0  0  0  0
   25.6520    3.9500   30.3010 C   0  0  0  0  0  0  0  0  0  0  0  0
   25.7990    2.7620   31.0450 C   0  0  0  0  0  0  0  0  0  0  0  0
   27.4270    2.1690   31.2980 S   0  0  0  0  0  0  0  0  0  0  0  0
   28.1000    1.9970   29.9860 O   0  0  0  0  0  0  0  0  0  0  0  0
   27.3500    0.8770   32.0230 O   0  0  0  0  0  0  0  0  0  0  0  0
   28.2070    3.3780   32.2680 C   0  0  0  0  0  0  0  0  0  0  0  0
   24.6430    2.1190   31.5070 C   0  0  0  0  0  0  0  0  0  0  0  0
   23.3480    2.6090   31.1780 C   0  0  0  0  0  0  0  0  0  0  0  0
   24.8570    1.0000   32.2670 O   0  0  0  0  0  0  0  0  0  0  0  0
   23.7160    0.4110   32.9570 C   0  0  0  0  0  0  0  0  0  0  0  0
   24.5090    9.4580   31.0110 H   0  0  0  0  0  0  0  0  0  0  0  0
   24.8340   11.1220   31.6460 H   0  0  0  0  0  0  0  0  0  0  0  0
   25.4140   10.6420   30.0000 H   0  0  0  0  0  0  0  0  0  0  0  0
   23.3510   12.1070   29.8160 H   0  0  0  0  0  0  0  0  0  0  0  0
   22.9630   10.3840   29.2660 H   0  0  0  0  0  0  0  0  0  0  0  0
   19.6340    6.8270   32.5440 H   0  0  0  0  0  0  0  0  0  0  0  0
   18.0660    8.2040   33.7460 H   0  0  0  0  0  0  0  0  0  0  0  0
   18.1950    9.9590   33.7760 H   0  0  0  0  0  0  0  0  0  0  0  0
   22.7910    6.5600   30.4550 H   0  0  0  0  0  0  0  0  0  0  0  0
   21.1870    3.3320   29.8240 H   0  0  0  0  0  0  0  0  0  0  0  0
   21.9930    4.6990   28.9180 H   0  0  0  0  0  0  0  0  0  0  0  0
   24.6060    7.4700   28.8020 H   0  0  0  0  0  0  0  0  0  0  0  0
   25.5950    6.7710   30.1810 H   0  0  0  0  0  0  0  0  0  0  0  0
   25.9390    6.2500   28.4500 H   0  0  0  0  0  0  0  0  0  0  0  0
   26.5370    4.4970   29.9580 H   0  0  0  0  0  0  0  0  0  0  0  0
   28.2530    4.3770   31.7590 H   0  0  0  0  0  0  0  0  0  0  0  0
   29.2680    3.1080   32.5150 H   0  0  0  0  0  0  0  0  0  0  0  0
   27.6820    3.5380   33.2430 H   0  0  0  0  0  0  0  0  0  0  0  0
   22.4600    2.0770   31.5230 H   0  0  0  0  0  0  0  0  0  0  0  0
   22.9860    0.0030   32.2270 H   0  0  0  0  0  0  0  0  0  0  0  0
   23.2580    1.1570   33.6420 H   0  0  0  0  0  0  0  0  0  0  0  0
   24.2040   -0.4110   33.5350 H   0  0  0  0  0  0  0  0  0  0  0  0
  1  2  1  0  0  0  0
  1 31  1  0  0  0  0
  1 32  1  0  0  0  0
  1 33  1  0  0  0  0
  2  3  1  0  0  0  0
  2 34  1  0  0  0  0
  2 35  1  0  0  0  0
  3  4  1  0  0  0  0
  4 10  2  0  0  0  0
  4  5  1  0  0  0  0
  5  6  2  0  0  0  0
  6  7  1  0  0  0  0
  6 13  1  0  0  0  0
  7  8  2  0  0  0  0
  7 36  1  0  0  0  0
  8  9  1  0  0  0  0
  8 10  1  0  0  0  0
  9 37  1  0  0  0  0
  9 38  1  0  0  0  0
 10 11  1  0  0  0  0
 11 12  3  0  0  0  0
 13 14  1  0  0  0  0
 13 39  1  0  0  0  0
 14 15  2  0  0  0  0
 14 16  1  0  0  0  0
 16 17  1  0  0  0  0
 16 40  1  0  0  0  0
 16 41  1  0  0  0  0
 17 28  2  0  0  0  0
 17 18  1  0  0  0  0
 18 19  1  0  0  0  0
 18 21  2  0  0  0  0
 19 20  1  0  0  0  0
 20 42  1  0  0  0  0
 20 43  1  0  0  0  0
 20 44  1  0  0  0  0
 21 22  1  0  0  0  0
 21 45  1  0  0  0  0
 22 23  1  0  0  0  0
 22 27  2  0  0  0  0
 23 24  2  0  0  0  0
 23 25  2  0  0  0  0
 23 26  1  0  0  0  0
 26 46  1  0  0  0  0
 26 47  1  0  0  0  0
 26 48  1  0  0  0  0
 27 28  1  0  0  0  0
 27 29  1  0  0  0  0
 28 49  1  0  0  0  0
 29 30  1  0  0  0  0
 30 50  1  0  0  0  0
 30 51  1  0  0  0  0
 30 52  1  0  0  0  0
M  END
$$$$
