29
 OpenBabel02232411153D
Structure written by MMmdl.
 56 59  0  0  0  0  0  0  0  0999 V2000
    1.6120   28.9640    6.8140 C   0  0  0  0  0  0  0  0  0  0  0  0
   -1.7670   31.6240    8.1010 C   0  0  0  0  0  0  0  0  0  0  0  0
   -0.3590   26.0960    8.9070 C   0  0  0  0  0  0  0  0  0  0  0  0
   -1.0690   25.3790   10.0620 C   0  0  0  0  0  0  0  0  0  0  0  0
   -0.8420   23.8630    9.8520 C   0  0  0  0  0  0  0  0  0  0  0  0
   -1.3830   23.0420   11.0300 C   0  0  0  0  0  0  0  0  0  0  0  0
   -0.8070   23.5250   12.3700 C   0  0  0  0  0  0  0  0  0  0  0  0
   -1.0810   25.0220   12.5820 C   0  0  0  0  0  0  0  0  0  0  0  0
   -0.5240   25.8580   11.4210 C   0  0  0  0  0  0  0  0  0  0  0  0
    5.2320   25.7700    5.8680 C   0  0  0  0  0  0  0  0  0  0  0  0
    5.0600   25.0490    7.0520 C   0  0  0  0  0  0  0  0  0  0  0  0
    4.1540   25.5210    8.0140 C   0  0  0  0  0  0  0  0  0  0  0  0
    3.4110   26.6770    7.7930 C   0  0  0  0  0  0  0  0  0  0  0  0
    0.8890   28.0130    7.5250 N   0  0  0  0  0  0  0  0  0  0  0  0
   -0.2780   28.3630    8.1280 C   0  0  0  0  0  0  0  0  0  0  0  0
   -0.9500   27.4620    8.8570 O   0  0  0  0  0  0  0  0  0  0  0  0
   -0.7680   29.6890    7.9960 C   0  0  0  0  0  0  0  0  0  0  0  0
   -1.8840   30.3580    8.5090 N   0  0  0  0  0  0  0  0  0  0  0  0
   -0.5780   31.8370    7.3170 N   0  0  0  0  0  0  0  0  0  0  0  0
    0.0610   30.6050    7.2310 C   0  0  0  0  0  0  0  0  0  0  0  0
    1.2400   30.2770    6.6050 N   0  0  0  0  0  0  0  0  0  0  0  0
    2.8150   28.5430    6.2420 N   0  0  0  0  0  0  0  0  0  0  0  0
    3.5450   27.3660    6.5740 C   0  0  0  0  0  0  0  0  0  0  0  0
    4.4830   26.9150    5.6170 C   0  0  0  0  0  0  0  0  0  0  0  0
   -2.4440   32.4410    8.3300 H   0  0  0  0  0  0  0  0  0  0  0  0
    0.7340   26.1790    9.0970 H   0  0  0  0  0  0  0  0  0  0  0  0
   -0.5780   25.6430    7.9180 H   0  0  0  0  0  0  0  0  0  0  0  0
   -2.1640   25.5900   10.0320 H   0  0  0  0  0  0  0  0  0  0  0  0
   -1.3560   23.5410    8.9190 H   0  0  0  0  0  0  0  0  0  0  0  0
    0.2530   23.6640    9.7500 H   0  0  0  0  0  0  0  0  0  0  0  0
   -2.4890   23.1360   11.0630 H   0  0  0  0  0  0  0  0  0  0  0  0
   -1.1190   21.9680   10.8840 H   0  0  0  0  0  0  0  0  0  0  0  0
   -1.2680   22.9430   13.2010 H   0  0  0  0  0  0  0  0  0  0  0  0
    0.2940   23.3520   12.3780 H   0  0  0  0  0  0  0  0  0  0  0  0
   -2.1780   25.1900   12.6820 H   0  0  0  0  0  0  0  0  0  0  0  0
   -0.5910   25.3510   13.5270 H   0  0  0  0  0  0  0  0  0  0  0  0
    0.5900   25.7770   11.4340 H   0  0  0  0  0  0  0  0  0  0  0  0
   -0.8000   26.9260   11.5730 H   0  0  0  0  0  0  0  0  0  0  0  0
    5.9560   25.4640    5.1070 H   0  0  0  0  0  0  0  0  0  0  0  0
    4.0180   24.9900    8.9650 H   0  0  0  0  0  0  0  0  0  0  0  0
    2.7320   27.0310    8.5690 H   0  0  0  0  0  0  0  0  0  0  0  0
   -0.2930   32.7110    6.8490 H   0  0  0  0  0  0  0  0  0  0  0  0
    3.3300   29.2010    5.6090 H   0  0  0  0  0  0  0  0  0  0  0  0
    4.6330   27.4600    4.6850 H   0  0  0  0  0  0  0  0  0  0  0  0
    5.9680   23.6400    7.4600 S   0  0  0  0  0  0  0  0  0  0  0  0
    6.9250   24.0650    8.4790 O   0  0  0  0  0  0  0  0  0  0  0  0
    5.0400   22.5490    7.7730 O   0  0  0  0  0  0  0  0  0  0  0  0
    6.8900   23.0410    6.1430 N   0  0  0  0  0  0  0  0  0  0  0  0
    6.1910   22.6960    4.8820 C   0  0  0  0  0  0  0  0  0  0  0  0
    5.1300   22.4020    5.0720 H   0  0  0  0  0  0  0  0  0  0  0  0
    6.2090   23.5290    4.1290 H   0  0  0  0  0  0  0  0  0  0  0  0
    6.7150   21.8130    4.4210 H   0  0  0  0  0  0  0  0  0  0  0  0
    8.2320   23.6380    5.9280 C   0  0  0  0  0  0  0  0  0  0  0  0
    8.7810   23.0380    5.1520 H   0  0  0  0  0  0  0  0  0  0  0  0
    8.1830   24.7000    5.5720 H   0  0  0  0  0  0  0  0  0  0  0  0
    8.8040   23.5680    6.8890 H   0  0  0  0  0  0  0  0  0  0  0  0
  1 14  2  0  0  0  0
  1 21  1  0  0  0  0
  1 22  1  0  0  0  0
  2 18  2  0  0  0  0
  2 19  1  0  0  0  0
  2 25  1  0  0  0  0
  3  4  1  0  0  0  0
  3 16  1  0  0  0  0
  3 26  1  0  0  0  0
  3 27  1  0  0  0  0
  4  5  1  0  0  0  0
  4  9  1  0  0  0  0
  4 28  1  0  0  0  0
  5  6  1  0  0  0  0
  5 29  1  0  0  0  0
  5 30  1  0  0  0  0
  6  7  1  0  0  0  0
  6 31  1  0  0  0  0
  6 32  1  0  0  0  0
  7  8  1  0  0  0  0
  7 33  1  0  0  0  0
  7 34  1  0  0  0  0
  8  9  1  0  0  0  0
  8 35  1  0  0  0  0
  8 36  1  0  0  0  0
  9 37  1  0  0  0  0
  9 38  1  0  0  0  0
 10 11  2  0  0  0  0
 10 24  1  0  0  0  0
 10 39  1  0  0  0  0
 11 12  1  0  0  0  0
 11 45  1  0  0  0  0
 12 13  2  0  0  0  0
 12 40  1  0  0  0  0
 13 23  1  0  0  0  0
 13 41  1  0  0  0  0
 14 15  1  0  0  0  0
 15 16  1  0  0  0  0
 15 17  2  0  0  0  0
 17 18  1  0  0  0  0
 17 20  1  0  0  0  0
 19 20  1  0  0  0  0
 19 42  1  0  0  0  0
 20 21  2  0  0  0  0
 22 23  1  0  0  0  0
 22 43  1  0  0  0  0
 23 24  2  0  0  0  0
 24 44  1  0  0  0  0
 45 46  2  0  0  0  0
 45 47  2  0  0  0  0
 45 48  1  0  0  0  0
 48 49  1  0  0  0  0
 48 53  1  0  0  0  0
 49 50  1  0  0  0  0
 49 51  1  0  0  0  0
 49 52  1  0  0  0  0
 53 54  1  0  0  0  0
 53 55  1  0  0  0  0
 53 56  1  0  0  0  0
M  END
$$$$
