p38a_2u
 OpenBabel02232411163D
Structure written by MMmdl.
 64 68  0  0  0  0  0  0  0  0999 V2000
   38.2510   36.5220   17.1800 C   0  0  0  0  0  0  0  0  0  0  0  0
   34.5740   35.1230   21.2830 C   0  0  0  0  0  0  0  0  0  0  0  0
   37.4560   36.0820   18.2350 C   0  0  0  0  0  0  0  0  0  0  0  0
   33.9970   39.2170   23.7970 C   0  0  0  0  0  0  0  0  0  0  0  0
   34.6260   38.0030   21.4010 C   0  0  0  0  0  0  0  0  0  0  0  0
   34.9960   37.3440   20.1790 C   0  0  0  0  0  0  0  0  0  0  0  0
   37.6090   36.6880   15.9450 C   0  0  0  0  0  0  0  0  0  0  0  0
   36.2560   36.4100   15.7350 C   0  0  0  0  0  0  0  0  0  0  0  0
   35.4820   35.9580   16.8090 C   0  0  0  0  0  0  0  0  0  0  0  0
   34.3160   37.2330   22.5600 C   0  0  0  0  0  0  0  0  0  0  0  0
   34.5710   39.4170   21.5340 C   0  0  0  0  0  0  0  0  0  0  0  0
   35.0000   35.9920   20.1490 C   0  0  0  0  0  0  0  0  0  0  0  0
   36.0880   35.7850   18.0560 C   0  0  0  0  0  0  0  0  0  0  0  0
   37.9830   35.9380   19.4440 F   0  0  0  0  0  0  0  0  0  0  0  0
   35.3530   35.1710   19.0800 O   0  0  0  0  0  0  0  0  0  0  0  0
   34.2760   40.0380   22.6860 N   0  0  0  0  0  0  0  0  0  0  0  0
   34.4570   33.9190   21.2130 O   0  0  0  0  0  0  0  0  0  0  0  0
   34.3090   35.8240   22.5130 N   0  0  0  0  0  0  0  0  0  0  0  0
   34.0190   37.8380   23.7540 N   0  0  0  0  0  0  0  0  0  0  0  0
   33.6130   39.8290   24.9700 N   0  0  0  0  0  0  0  0  0  0  0  0
   39.3090   36.7640   17.3170 H   0  0  0  0  0  0  0  0  0  0  0  0
   35.2700   37.9600   19.3200 H   0  0  0  0  0  0  0  0  0  0  0  0
   35.7920   36.5570   14.7570 H   0  0  0  0  0  0  0  0  0  0  0  0
   34.4150   35.7560   16.6680 H   0  0  0  0  0  0  0  0  0  0  0  0
   34.7750   40.0570   20.6590 H   0  0  0  0  0  0  0  0  0  0  0  0
   33.7240   40.8560   25.0730 H   0  0  0  0  0  0  0  0  0  0  0  0
   38.3190   37.1730   14.9290 F   0  0  0  0  0  0  0  0  0  0  0  0
   32.3370   39.0830   28.4890 C   0  0  0  0  0  0  0  0  0  0  0  0
   32.3910   39.7430   27.1060 C   0  0  0  0  0  0  0  0  0  0  0  0
   33.4940   39.0750   26.2560 C   0  0  0  0  0  0  0  0  0  0  0  0
   34.8420   39.0810   27.0110 C   0  0  0  0  0  0  0  0  0  0  0  0
   34.6630   38.4750   28.4080 C   0  0  0  0  0  0  0  0  0  0  0  0
   33.6210   39.1480   29.1520 O   0  0  0  0  0  0  0  0  0  0  0  0
   32.0230   38.0150   28.4090 H   0  0  0  0  0  0  0  0  0  0  0  0
   31.6790   39.6510   29.1850 H   0  0  0  0  0  0  0  0  0  0  0  0
   32.6080   40.8310   27.2200 H   0  0  0  0  0  0  0  0  0  0  0  0
   31.4060   39.6270   26.5950 H   0  0  0  0  0  0  0  0  0  0  0  0
   33.1930   38.0120   26.0360 H   0  0  0  0  0  0  0  0  0  0  0  0
   35.5900   38.4760   26.4450 H   0  0  0  0  0  0  0  0  0  0  0  0
   35.2220   40.1270   27.0960 H   0  0  0  0  0  0  0  0  0  0  0  0
   34.4130   37.3900   28.3400 H   0  0  0  0  0  0  0  0  0  0  0  0
   35.5620   38.6480   29.0420 H   0  0  0  0  0  0  0  0  0  0  0  0
   34.6900   33.2300   25.3640 C   0  0  0  0  0  0  0  0  0  0  0  0
   35.0360   33.9980   24.0720 C   0  0  0  0  0  0  0  0  0  0  0  0
   33.9550   35.0540   23.7710 C   0  0  0  0  0  0  0  0  0  0  0  0
   32.5420   34.4470   23.6530 C   0  0  0  0  0  0  0  0  0  0  0  0
   32.4850   33.0050   24.1990 C   0  0  0  0  0  0  0  0  0  0  0  0
   34.9640   33.8750   26.2410 H   0  0  0  0  0  0  0  0  0  0  0  0
   35.3050   32.2920   25.3860 H   0  0  0  0  0  0  0  0  0  0  0  0
   35.1190   33.2810   23.2210 H   0  0  0  0  0  0  0  0  0  0  0  0
   36.0150   34.5110   24.2180 H   0  0  0  0  0  0  0  0  0  0  0  0
   33.9540   35.7820   24.6350 H   0  0  0  0  0  0  0  0  0  0  0  0
   31.8300   35.1010   24.2140 H   0  0  0  0  0  0  0  0  0  0  0  0
   32.1960   34.4260   22.5920 H   0  0  0  0  0  0  0  0  0  0  0  0
   31.4120   32.7240   24.3700 H   0  0  0  0  0  0  0  0  0  0  0  0
   32.9180   32.3090   23.4320 H   0  0  0  0  0  0  0  0  0  0  0  0
   33.2600   32.8030   25.4500 N   0  0  0  0  0  0  0  0  0  0  0  0
   32.4440   32.9790   26.9580 S   0  0  0  0  0  0  0  0  0  0  0  0
   33.0940   32.0540   27.9060 O   0  0  0  0  0  0  0  0  0  0  0  0
   31.0300   32.6170   26.7320 O   0  0  0  0  0  0  0  0  0  0  0  0
   32.6150   34.6220   27.4780 C   0  0  0  0  0  0  0  0  0  0  0  0
   33.6400   34.8600   27.8700 H   0  0  0  0  0  0  0  0  0  0  0  0
   32.3950   35.3670   26.6700 H   0  0  0  0  0  0  0  0  0  0  0  0
   31.9090   34.8740   28.3170 H   0  0  0  0  0  0  0  0  0  0  0  0
  1  3  2  0  0  0  0
  1  7  1  0  0  0  0
  1 21  1  0  0  0  0
  2 12  1  0  0  0  0
  2 17  2  0  0  0  0
  2 18  1  0  0  0  0
  3 13  1  0  0  0  0
  3 14  1  0  0  0  0
  4 16  2  0  0  0  0
  4 19  1  0  0  0  0
  4 20  1  0  0  0  0
  5  6  1  0  0  0  0
  5 10  1  0  0  0  0
  5 11  2  0  0  0  0
  6 12  2  0  0  0  0
  6 22  1  0  0  0  0
  7  8  2  0  0  0  0
  7 27  1  0  0  0  0
  8  9  1  0  0  0  0
  8 23  1  0  0  0  0
  9 13  2  0  0  0  0
  9 24  1  0  0  0  0
 10 18  1  0  0  0  0
 10 19  2  0  0  0  0
 11 16  1  0  0  0  0
 11 25  1  0  0  0  0
 12 15  1  0  0  0  0
 13 15  1  0  0  0  0
 18 45  1  0  0  0  0
 20 26  1  0  0  0  0
 20 30  1  0  0  0  0
 28 29  1  0  0  0  0
 28 33  1  0  0  0  0
 28 34  1  0  0  0  0
 28 35  1  0  0  0  0
 29 30  1  0  0  0  0
 29 36  1  0  0  0  0
 29 37  1  0  0  0  0
 30 31  1  0  0  0  0
 30 38  1  0  0  0  0
 31 32  1  0  0  0  0
 31 39  1  0  0  0  0
 31 40  1  0  0  0  0
 32 33  1  0  0  0  0
 32 41  1  0  0  0  0
 32 42  1  0  0  0  0
 43 44  1  0  0  0  0
 43 48  1  0  0  0  0
 43 49  1  0  0  0  0
 43 57  1  0  0  0  0
 44 45  1  0  0  0  0
 44 50  1  0  0  0  0
 44 51  1  0  0  0  0
 45 46  1  0  0  0  0
 45 52  1  0  0  0  0
 46 47  1  0  0  0  0
 46 53  1  0  0  0  0
 46 54  1  0  0  0  0
 47 55  1  0  0  0  0
 47 56  1  0  0  0  0
 47 57  1  0  0  0  0
 57 58  1  0  0  0  0
 58 59  2  0  0  0  0
 58 60  2  0  0  0  0
 58 61  1  0  0  0  0
 61 62  1  0  0  0  0
 61 63  1  0  0  0  0
 61 64  1  0  0  0  0
M  END
$$$$
