p38a_2aa
 OpenBabel02232411163D
Structure written by MMmdl.
 43 45  0  0  0  0  0  0  0  0999 V2000
   36.3510   36.0120   15.8600 C   0  0  0  0  0  0  0  0  0  0  0  0
   34.5340   35.0620   21.4000 C   0  0  0  0  0  0  0  0  0  0  0  0
   35.6950   35.5540   16.9990 C   0  0  0  0  0  0  0  0  0  0  0  0
   33.8630   39.2120   23.7850 C   0  0  0  0  0  0  0  0  0  0  0  0
   33.1300   39.2140   26.1880 C   0  0  0  0  0  0  0  0  0  0  0  0
   34.7150   37.9350   21.5000 C   0  0  0  0  0  0  0  0  0  0  0  0
   35.2020   37.2380   20.3390 C   0  0  0  0  0  0  0  0  0  0  0  0
   37.6460   36.5140   16.0450 C   0  0  0  0  0  0  0  0  0  0  0  0
   38.2950   36.5360   17.2830 C   0  0  0  0  0  0  0  0  0  0  0  0
   37.6010   36.1030   18.4190 C   0  0  0  0  0  0  0  0  0  0  0  0
   34.2440   37.2020   22.6290 C   0  0  0  0  0  0  0  0  0  0  0  0
   34.6910   39.3520   21.5980 C   0  0  0  0  0  0  0  0  0  0  0  0
   35.1410   35.8870   20.3190 C   0  0  0  0  0  0  0  0  0  0  0  0
   36.3000   35.6120   18.2710 C   0  0  0  0  0  0  0  0  0  0  0  0
   33.6830   35.0620   23.7790 C   0  0  0  0  0  0  0  0  0  0  0  0
   34.4790   35.0330   16.9120 F   0  0  0  0  0  0  0  0  0  0  0  0
   35.5770   35.0230   19.3160 O   0  0  0  0  0  0  0  0  0  0  0  0
   34.2900   40.0020   22.7020 N   0  0  0  0  0  0  0  0  0  0  0  0
   34.3310   33.8700   21.3420 O   0  0  0  0  0  0  0  0  0  0  0  0
   34.1750   35.8000   22.5820 N   0  0  0  0  0  0  0  0  0  0  0  0
   33.8340   37.8340   23.7790 N   0  0  0  0  0  0  0  0  0  0  0  0
   33.3600   39.8870   24.8820 N   0  0  0  0  0  0  0  0  0  0  0  0
   35.8750   36.0040   14.8770 H   0  0  0  0  0  0  0  0  0  0  0  0
   33.5430   40.1360   27.3700 C   0  0  0  0  0  0  0  0  0  0  0  0
   35.6150   37.8300   19.5190 H   0  0  0  0  0  0  0  0  0  0  0  0
   39.3170   36.9140   17.3730 H   0  0  0  0  0  0  0  0  0  0  0  0
   38.0720   36.1720   19.4020 H   0  0  0  0  0  0  0  0  0  0  0  0
   35.0090   39.9640   20.7380 H   0  0  0  0  0  0  0  0  0  0  0  0
   34.3180   35.3150   24.6720 H   0  0  0  0  0  0  0  0  0  0  0  0
   32.6230   35.3570   24.0060 H   0  0  0  0  0  0  0  0  0  0  0  0
   33.7290   33.9570   23.6010 H   0  0  0  0  0  0  0  0  0  0  0  0
   33.4860   40.9140   24.9300 H   0  0  0  0  0  0  0  0  0  0  0  0
   38.2730   37.0270   14.9890 F   0  0  0  0  0  0  0  0  0  0  0  0
   31.6120   38.8820   26.2710 C   0  0  0  0  0  0  0  0  0  0  0  0
   31.1920   38.8000   27.6390 O   0  0  0  0  0  0  0  0  0  0  0  0
   31.5540   37.9760   28.0530 H   0  0  0  0  0  0  0  0  0  0  0  0
   30.9910   39.7170   25.8720 H   0  0  0  0  0  0  0  0  0  0  0  0
   31.3930   37.9220   25.7500 H   0  0  0  0  0  0  0  0  0  0  0  0
   34.7550   40.8530   27.0930 O   0  0  0  0  0  0  0  0  0  0  0  0
   32.7360   40.8660   27.6030 H   0  0  0  0  0  0  0  0  0  0  0  0
   33.8010   39.5140   28.2600 H   0  0  0  0  0  0  0  0  0  0  0  0
   34.5040   41.6430   26.5140 H   0  0  0  0  0  0  0  0  0  0  0  0
   33.7210   38.2570   26.2520 H   0  0  0  0  0  0  0  0  0  0  0  0
  1  3  2  0  0  0  0
  1  8  1  0  0  0  0
  1 23  1  0  0  0  0
  2 13  1  0  0  0  0
  2 19  2  0  0  0  0
  2 20  1  0  0  0  0
  3 14  1  0  0  0  0
  3 16  1  0  0  0  0
  4 18  2  0  0  0  0
  4 21  1  0  0  0  0
  4 22  1  0  0  0  0
  5 22  1  0  0  0  0
  5 24  1  0  0  0  0
  5 34  1  0  0  0  0
  5 43  1  0  0  0  0
  6  7  1  0  0  0  0
  6 11  1  0  0  0  0
  6 12  2  0  0  0  0
  7 13  2  0  0  0  0
  7 25  1  0  0  0  0
  8  9  2  0  0  0  0
  8 33  1  0  0  0  0
  9 10  1  0  0  0  0
  9 26  1  0  0  0  0
 10 14  2  0  0  0  0
 10 27  1  0  0  0  0
 11 20  1  0  0  0  0
 11 21  2  0  0  0  0
 12 18  1  0  0  0  0
 12 28  1  0  0  0  0
 13 17  1  0  0  0  0
 14 17  1  0  0  0  0
 15 20  1  0  0  0  0
 15 29  1  0  0  0  0
 15 30  1  0  0  0  0
 15 31  1  0  0  0  0
 22 32  1  0  0  0  0
 24 39  1  0  0  0  0
 24 40  1  0  0  0  0
 24 41  1  0  0  0  0
 34 35  1  0  0  0  0
 34 37  1  0  0  0  0
 34 38  1  0  0  0  0
 35 36  1  0  0  0  0
 39 42  1  0  0  0  0
M  END
$$$$
