18625-1
 OpenBabel02232411163D
Structure written by MMmdl.
 38 39  0  0  0  0  0  0  0  0999 V2000
   23.8750   12.6100   30.3140 C   0  0  0  0  0  0  0  0  0  0  0  0
   23.4540   11.1560   30.4210 C   0  0  0  0  0  0  0  0  0  0  0  0
   22.2080   11.2340   31.2270 O   0  0  0  0  0  0  0  0  0  0  0  0
   21.5710   10.0930   31.5590 C   0  0  0  0  0  0  0  0  0  0  0  0
   22.0430    8.9040   31.1110 N   0  0  0  0  0  0  0  0  0  0  0  0
   21.3150    7.7690   31.4390 C   0  0  0  0  0  0  0  0  0  0  0  0
   20.1650    7.8120   32.2210 C   0  0  0  0  0  0  0  0  0  0  0  0
   19.6790    9.0630   32.6880 C   0  0  0  0  0  0  0  0  0  0  0  0
   18.5330    9.1120   33.4410 N   0  0  0  0  0  0  0  0  0  0  0  0
   20.3910   10.2560   32.3460 C   0  0  0  0  0  0  0  0  0  0  0  0
   19.9760   11.5570   32.7030 C   0  0  0  0  0  0  0  0  0  0  0  0
   19.6790   12.6500   32.9520 N   0  0  0  0  0  0  0  0  0  0  0  0
   21.8800    6.5930   30.8850 N   0  0  0  0  0  0  0  0  0  0  0  0
   21.3170    5.2960   30.9320 C   0  0  0  0  0  0  0  0  0  0  0  0
   20.2410    5.0660   31.4440 O   0  0  0  0  0  0  0  0  0  0  0  0
   22.1560    4.2330   30.2390 C   0  0  0  0  0  0  0  0  0  0  0  0
   23.4770    4.0110   30.9160 C   0  0  0  0  0  0  0  0  0  0  0  0
   24.6880    4.4850   30.3890 C   0  0  0  0  0  0  0  0  0  0  0  0
   24.7120    5.3530   28.8960 Cl  0  0  0  0  0  0  0  0  0  0  0  0
   25.9130    4.2560   31.0210 C   0  0  0  0  0  0  0  0  0  0  0  0
   25.9360    3.5250   32.2110 C   0  0  0  0  0  0  0  0  0  0  0  0
   24.7430    3.0410   32.7570 C   0  0  0  0  0  0  0  0  0  0  0  0
   23.5260    3.2800   32.1160 C   0  0  0  0  0  0  0  0  0  0  0  0
   24.8050   12.6700   29.6950 H   0  0  0  0  0  0  0  0  0  0  0  0
   23.0860   13.2190   29.8130 H   0  0  0  0  0  0  0  0  0  0  0  0
   24.0840   13.0480   31.3160 H   0  0  0  0  0  0  0  0  0  0  0  0
   23.1900   10.7150   29.4340 H   0  0  0  0  0  0  0  0  0  0  0  0
   24.1890   10.5360   30.9810 H   0  0  0  0  0  0  0  0  0  0  0  0
   19.6140    6.9010   32.4700 H   0  0  0  0  0  0  0  0  0  0  0  0
   18.1400   10.0000   33.7530 H   0  0  0  0  0  0  0  0  0  0  0  0
   18.0270    8.2460   33.7080 H   0  0  0  0  0  0  0  0  0  0  0  0
   22.7800    6.7210   30.3820 H   0  0  0  0  0  0  0  0  0  0  0  0
   21.5860    3.2620   30.2550 H   0  0  0  0  0  0  0  0  0  0  0  0
   22.2840    4.5250   29.1640 H   0  0  0  0  0  0  0  0  0  0  0  0
   26.8450    4.6350   30.5900 H   0  0  0  0  0  0  0  0  0  0  0  0
   26.8890    3.3290   32.7120 H   0  0  0  0  0  0  0  0  0  0  0  0
   24.7670    2.4620   33.6860 H   0  0  0  0  0  0  0  0  0  0  0  0
   22.6070    2.8770   32.5510 H   0  0  0  0  0  0  0  0  0  0  0  0
  1  2  1  0  0  0  0
  1 24  1  0  0  0  0
  1 25  1  0  0  0  0
  1 26  1  0  0  0  0
  2  3  1  0  0  0  0
  2 27  1  0  0  0  0
  2 28  1  0  0  0  0
  3  4  1  0  0  0  0
  4 10  2  0  0  0  0
  4  5  1  0  0  0  0
  5  6  2  0  0  0  0
  6  7  1  0  0  0  0
  6 13  1  0  0  0  0
  7  8  2  0  0  0  0
  7 29  1  0  0  0  0
  8  9  1  0  0  0  0
  8 10  1  0  0  0  0
  9 30  1  0  0  0  0
  9 31  1  0  0  0  0
 10 11  1  0  0  0  0
 11 12  3  0  0  0  0
 13 14  1  0  0  0  0
 13 32  1  0  0  0  0
 14 15  2  0  0  0  0
 14 16  1  0  0  0  0
 16 17  1  0  0  0  0
 16 33  1  0  0  0  0
 16 34  1  0  0  0  0
 17 23  2  0  0  0  0
 17 18  1  0  0  0  0
 18 19  1  0  0  0  0
 18 20  2  0  0  0  0
 20 21  1  0  0  0  0
 20 35  1  0  0  0  0
 21 22  2  0  0  0  0
 21 36  1  0  0  0  0
 22 23  1  0  0  0  0
 22 37  1  0  0  0  0
 23 38  1  0  0  0  0
M  END
$$$$
