CAT-4b
 OpenBabel02232411143D
Structure written by MMmdl.
 50 53  0  0  1  0  0  0  0  0999 V2000
   14.9820    4.7140    1.6040 C   0  0  0  0  0  0  0  0  0  0  0  0
   15.6680    3.6030    0.9710 O   0  0  0  0  0  0  0  0  0  0  0  0
   15.4000    3.3500   -0.3570 C   0  0  0  0  0  0  0  0  0  0  0  0
   14.9340    4.2840   -1.2920 C   0  0  0  0  0  0  0  0  0  0  0  0
   14.7520    3.8620   -2.6120 C   0  0  0  0  0  0  0  0  0  0  0  0
   14.9890    2.5350   -2.9860 C   0  0  0  0  0  0  0  0  0  0  0  0
   15.4220    1.5990   -2.0320 C   0  0  0  0  0  0  0  0  0  0  0  0
   15.5640    0.1640   -2.3750 C   0  0  0  0  0  0  0  0  0  0  0  0
   16.0870   -0.2640   -3.6080 C   0  0  0  0  0  0  0  0  0  0  0  0
   16.1720   -1.6280   -3.8950 C   0  0  0  0  0  0  0  0  0  0  0  0
   15.7630   -2.5960   -2.9680 C   0  0  0  0  0  0  0  0  0  0  0  0
   15.2510   -2.1800   -1.7380 C   0  0  0  0  0  0  0  0  0  0  0  0
   14.7440   -3.1530   -0.6940 C   0  0  1  0  0  0  0  0  0  0  0  0
   15.1340   -4.6180   -0.7150 C   0  0  0  0  0  0  0  0  0  0  0  0
   16.4970   -4.9470   -0.7730 C   0  0  0  0  0  0  0  0  0  0  0  0
   16.9120   -6.2620   -0.5520 C   0  0  0  0  0  0  0  0  0  0  0  0
   15.9720   -7.2580   -0.2650 C   0  0  0  0  0  0  0  0  0  0  0  0
   14.6130   -6.9320   -0.2010 C   0  0  0  0  0  0  0  0  0  0  0  0
   14.1910   -5.6210   -0.4410 C   0  0  0  0  0  0  0  0  0  0  0  0
   15.1890   -2.6650    0.6730 N   0  3  0  0  0  0  0  0  0  0  0  0
   14.1100   -2.6240    1.5500 C   0  0  0  0  0  0  0  0  0  0  0  0
   14.2660   -2.5730    2.9030 N   0  0  0  0  0  0  0  0  0  0  0  0
   12.9170   -2.7390    0.8350 N   0  0  0  0  0  0  0  0  0  0  0  0
   11.5890   -2.5380    1.4460 C   0  0  0  0  0  0  0  0  0  0  0  0
   13.1910   -2.9750   -0.5990 C   0  0  0  0  0  0  0  0  0  0  0  0
   12.3310   -2.9810   -1.4190 O   0  0  0  0  0  0  0  0  0  0  0  0
   15.1410   -0.8060   -1.4560 C   0  0  0  0  0  0  0  0  0  0  0  0
   15.6570    2.0150   -0.7160 C   0  0  0  0  0  0  0  0  0  0  0  0
   15.1520    4.4730    2.6820 H   0  0  0  0  0  0  0  0  0  0  0  0
   15.4600    5.6670    1.3040 H   0  0  0  0  0  0  0  0  0  0  0  0
   13.9090    4.6900    1.3370 H   0  0  0  0  0  0  0  0  0  0  0  0
   14.7050    5.3130   -1.0170 H   0  0  0  0  0  0  0  0  0  0  0  0
   14.4020    4.5780   -3.3650 H   0  0  0  0  0  0  0  0  0  0  0  0
   14.8170    2.2300   -4.0220 H   0  0  0  0  0  0  0  0  0  0  0  0
   16.4330    0.4640   -4.3500 H   0  0  0  0  0  0  0  0  0  0  0  0
   16.5690   -1.9360   -4.8620 H   0  0  0  0  0  0  0  0  0  0  0  0
   15.8430   -3.6580   -3.2030 H   0  0  0  0  0  0  0  0  0  0  0  0
   17.2320   -4.1560   -0.9410 H   0  0  0  0  0  0  0  0  0  0  0  0
   17.9820   -6.4890   -0.5350 H   0  0  0  0  0  0  0  0  0  0  0  0
   16.2870   -8.2900   -0.0730 H   0  0  0  0  0  0  0  0  0  0  0  0
   13.8700   -7.7010    0.0370 H   0  0  0  0  0  0  0  0  0  0  0  0
   13.1240   -5.4040   -0.3880 H   0  0  0  0  0  0  0  0  0  0  0  0
   16.1440   -2.9150    1.0400 H   0  0  0  0  0  0  0  0  0  0  0  0
   13.5500   -2.1100    3.5140 H   0  0  0  0  0  0  0  0  0  0  0  0
   10.8280   -3.1460    0.8850 H   0  0  0  0  0  0  0  0  0  0  0  0
   11.5960   -2.8780    2.5170 H   0  0  0  0  0  0  0  0  0  0  0  0
   11.3180   -1.4510    1.4010 H   0  0  0  0  0  0  0  0  0  0  0  0
   14.7240   -0.4950   -0.5000 H   0  0  0  0  0  0  0  0  0  0  0  0
   16.0050    1.3160    0.0410 H   0  0  0  0  0  0  0  0  0  0  0  0
   15.2460   -2.4370    3.2830 H   0  0  0  0  0  0  0  0  0  0  0  0
  1  2  1  0  0  0  0
  1 29  1  0  0  0  0
  1 30  1  0  0  0  0
  1 31  1  0  0  0  0
  2  3  1  0  0  0  0
  3  4  2  0  0  0  0
  3 28  1  0  0  0  0
  4  5  1  0  0  0  0
  4 32  1  0  0  0  0
  5  6  2  0  0  0  0
  5 33  1  0  0  0  0
  6  7  1  0  0  0  0
  6 34  1  0  0  0  0
  7  8  1  0  0  0  0
  7 28  2  0  0  0  0
  8  9  2  0  0  0  0
  8 27  1  0  0  0  0
  9 10  1  0  0  0  0
  9 35  1  0  0  0  0
 10 11  2  0  0  0  0
 10 36  1  0  0  0  0
 11 12  1  0  0  0  0
 11 37  1  0  0  0  0
 12 27  2  0  0  0  0
 13 12  1  6  0  0  0
 13 14  1  0  0  0  0
 13 20  1  0  0  0  0
 13 25  1  0  0  0  0
 14 15  2  0  0  0  0
 14 19  1  0  0  0  0
 15 16  1  0  0  0  0
 15 38  1  0  0  0  0
 16 17  2  0  0  0  0
 16 39  1  0  0  0  0
 17 18  1  0  0  0  0
 17 40  1  0  0  0  0
 18 19  2  0  0  0  0
 18 41  1  0  0  0  0
 19 42  1  0  0  0  0
 20 21  2  0  0  0  0
 20 43  1  0  0  0  0
 21 22  1  0  0  0  0
 21 23  1  0  0  0  0
 22 44  1  0  0  0  0
 22 50  1  0  0  0  0
 23 24  1  0  0  0  0
 23 25  1  0  0  0  0
 24 45  1  0  0  0  0
 24 46  1  0  0  0  0
 24 47  1  0  0  0  0
 25 26  2  0  0  0  0
 27 48  1  0  0  0  0
 28 49  1  0  0  0  0
M  CHG  1  20   1
M  END
$$$$
