CAT-13e
 OpenBabel02232411143D
Structure written by MMmdl.
 46 49  0  0  1  0  0  0  0  0999 V2000
   11.6780   -2.2070    1.1670 C   0  0  0  0  0  0  0  0  0  0  0  0
   12.9980   -2.2670    0.5080 N   0  0  0  0  0  0  0  0  0  0  0  0
   14.2100   -2.2400    1.1960 C   0  0  0  0  0  0  0  0  0  0  0  0
   14.3710   -2.3380    2.5470 N   0  0  0  0  0  0  0  0  0  0  0  0
   15.2750   -2.1590    0.2840 N   0  3  0  0  0  0  0  0  0  0  0  0
   14.7790   -2.4440   -1.1210 C   0  0  1  0  0  0  0  0  0  0  0  0
   15.2440   -1.3590   -2.0790 C   0  0  0  0  0  0  0  0  0  0  0  0
   15.7120   -1.6470   -3.3680 C   0  0  0  0  0  0  0  0  0  0  0  0
   16.1150   -0.6030   -4.2080 C   0  0  0  0  0  0  0  0  0  0  0  0
   16.0340    0.7280   -3.7910 C   0  0  0  0  0  0  0  0  0  0  0  0
   15.5400    1.0330   -2.5120 C   0  0  0  0  0  0  0  0  0  0  0  0
   15.3670    2.4240   -2.0350 C   0  0  0  0  0  0  0  0  0  0  0  0
   14.9220    3.4370   -2.9000 C   0  0  0  0  0  0  0  0  0  0  0  0
   14.6400    4.7150   -2.4060 C   0  0  0  0  0  0  0  0  0  0  0  0
   14.7780    4.9980   -1.0440 C   0  0  0  0  0  0  0  0  0  0  0  0
   15.2290    3.9850   -0.1960 C   0  0  0  0  0  0  0  0  0  0  0  0
   15.3060    4.2610    1.5070 Cl  0  0  0  0  0  0  0  0  0  0  0  0
   15.5640    2.7190   -0.6740 C   0  0  0  0  0  0  0  0  0  0  0  0
   15.1520   -0.0220   -1.6700 C   0  0  0  0  0  0  0  0  0  0  0  0
   15.1100   -3.8780   -1.5590 C   0  0  0  0  0  0  0  0  0  0  0  0
   16.6280   -4.1420   -1.7320 C   0  0  0  0  0  0  0  0  0  0  0  0
   16.5650   -5.2030   -0.6140 C   0  0  0  0  0  0  0  0  0  0  0  0
   15.0430   -4.9810   -0.4630 C   0  0  0  0  0  0  0  0  0  0  0  0
   13.2310   -2.3350   -0.9480 C   0  0  0  0  0  0  0  0  0  0  0  0
   12.3370   -2.3000   -1.7310 O   0  0  0  0  0  0  0  0  0  0  0  0
   10.9460   -2.8250    0.5800 H   0  0  0  0  0  0  0  0  0  0  0  0
   11.3320   -1.1420    1.2090 H   0  0  0  0  0  0  0  0  0  0  0  0
   11.7370   -2.6240    2.2080 H   0  0  0  0  0  0  0  0  0  0  0  0
   13.6510   -1.9780    3.2210 H   0  0  0  0  0  0  0  0  0  0  0  0
   16.2090   -2.5300    0.6120 H   0  0  0  0  0  0  0  0  0  0  0  0
   15.7710   -2.6730   -3.7350 H   0  0  0  0  0  0  0  0  0  0  0  0
   16.5050   -0.8360   -5.2050 H   0  0  0  0  0  0  0  0  0  0  0  0
   16.3570    1.5210   -4.4720 H   0  0  0  0  0  0  0  0  0  0  0  0
   14.7710    3.2270   -3.9640 H   0  0  0  0  0  0  0  0  0  0  0  0
   14.2790    5.4890   -3.0940 H   0  0  0  0  0  0  0  0  0  0  0  0
   14.5220    5.9830   -0.6510 H   0  0  0  0  0  0  0  0  0  0  0  0
   15.9520    1.9550    0.0020 H   0  0  0  0  0  0  0  0  0  0  0  0
   14.7720    0.1890   -0.6760 H   0  0  0  0  0  0  0  0  0  0  0  0
   14.5120   -4.1470   -2.4550 H   0  0  0  0  0  0  0  0  0  0  0  0
   17.2680   -3.2770   -1.4740 H   0  0  0  0  0  0  0  0  0  0  0  0
   16.9010   -4.5390   -2.7180 H   0  0  0  0  0  0  0  0  0  0  0  0
   16.8540   -6.2230   -0.8920 H   0  0  0  0  0  0  0  0  0  0  0  0
   17.1470   -4.8650    0.2500 H   0  0  0  0  0  0  0  0  0  0  0  0
   14.7380   -4.6560    0.5430 H   0  0  0  0  0  0  0  0  0  0  0  0
   14.4230   -5.8450   -0.7660 H   0  0  0  0  0  0  0  0  0  0  0  0
   15.3480   -2.3200    2.9490 H   0  0  0  0  0  0  0  0  0  0  0  0
  1  2  1  0  0  0  0
  1 26  1  0  0  0  0
  1 27  1  0  0  0  0
  1 28  1  0  0  0  0
  2  3  1  0  0  0  0
  2 24  1  0  0  0  0
  3  4  1  0  0  0  0
  3  5  2  0  0  0  0
  4 29  1  0  0  0  0
  4 46  1  0  0  0  0
  5  6  1  0  0  0  0
  5 30  1  0  0  0  0
  6  7  1  6  0  0  0
  6 20  1  0  0  0  0
  6 24  1  0  0  0  0
  7  8  2  0  0  0  0
  7 19  1  0  0  0  0
  8  9  1  0  0  0  0
  8 31  1  0  0  0  0
  9 10  2  0  0  0  0
  9 32  1  0  0  0  0
 10 11  1  0  0  0  0
 10 33  1  0  0  0  0
 11 12  1  0  0  0  0
 11 19  2  0  0  0  0
 12 13  2  0  0  0  0
 12 18  1  0  0  0  0
 13 14  1  0  0  0  0
 13 34  1  0  0  0  0
 14 15  2  0  0  0  0
 14 35  1  0  0  0  0
 15 16  1  0  0  0  0
 15 36  1  0  0  0  0
 16 17  1  0  0  0  0
 16 18  2  0  0  0  0
 18 37  1  0  0  0  0
 19 38  1  0  0  0  0
 20 21  1  0  0  0  0
 20 23  1  0  0  0  0
 20 39  1  0  0  0  0
 21 22  1  0  0  0  0
 21 40  1  0  0  0  0
 21 41  1  0  0  0  0
 22 23  1  0  0  0  0
 22 42  1  0  0  0  0
 22 43  1  0  0  0  0
 23 44  1  0  0  0  0
 23 45  1  0  0  0  0
 24 25  2  0  0  0  0
M  CHG  1   5   1
M  END
$$$$
