18632-1
 OpenBabel02232411163D
Structure written by MMmdl.
 42 43  0  0  0  0  0  0  0  0999 V2000
   23.2130   10.8490   29.0590 C   0  0  0  0  0  0  0  0  0  0  0  0
   23.4890   11.0590   30.5330 C   0  0  0  0  0  0  0  0  0  0  0  0
   22.2230   11.1280   31.2930 O   0  0  0  0  0  0  0  0  0  0  0  0
   21.5770    9.9900   31.6250 C   0  0  0  0  0  0  0  0  0  0  0  0
   22.0490    8.7980   31.1910 N   0  0  0  0  0  0  0  0  0  0  0  0
   21.3130    7.6660   31.5040 C   0  0  0  0  0  0  0  0  0  0  0  0
   20.1530    7.7100   32.2710 C   0  0  0  0  0  0  0  0  0  0  0  0
   19.6740    8.9630   32.7370 C   0  0  0  0  0  0  0  0  0  0  0  0
   18.5180    9.0160   33.4750 N   0  0  0  0  0  0  0  0  0  0  0  0
   20.3960   10.1550   32.4090 C   0  0  0  0  0  0  0  0  0  0  0  0
   19.9990   11.4560   32.7820 C   0  0  0  0  0  0  0  0  0  0  0  0
   19.7240   12.5520   33.0470 N   0  0  0  0  0  0  0  0  0  0  0  0
   21.8780    6.5020   30.9270 N   0  0  0  0  0  0  0  0  0  0  0  0
   21.2860    5.2170   30.8680 C   0  0  0  0  0  0  0  0  0  0  0  0
   20.2390    4.9570   31.4210 O   0  0  0  0  0  0  0  0  0  0  0  0
   22.0500    4.2400   29.9890 C   0  0  0  0  0  0  0  0  0  0  0  0
   23.3920    3.8580   30.5580 C   0  0  0  0  0  0  0  0  0  0  0  0
   24.5400    4.5530   30.1710 C   0  0  0  0  0  0  0  0  0  0  0  0
   25.7820    4.1720   30.7240 C   0  0  0  0  0  0  0  0  0  0  0  0
   26.8270    4.9190   30.2320 O   0  0  0  0  0  0  0  0  0  0  0  0
   28.1650    4.6270   30.7140 C   0  0  0  0  0  0  0  0  0  0  0  0
   25.8860    3.1310   31.6540 C   0  0  0  0  0  0  0  0  0  0  0  0
   24.7230    2.4420   32.0120 C   0  0  0  0  0  0  0  0  0  0  0  0
   23.4860    2.7900   31.4650 C   0  0  0  0  0  0  0  0  0  0  0  0
   24.1580   11.0040   28.4810 H   0  0  0  0  0  0  0  0  0  0  0  0
   22.8500    9.8140   28.8550 H   0  0  0  0  0  0  0  0  0  0  0  0
   22.4570   11.5740   28.6810 H   0  0  0  0  0  0  0  0  0  0  0  0
   24.1380   10.2620   30.9620 H   0  0  0  0  0  0  0  0  0  0  0  0
   23.8790   12.0840   30.7480 H   0  0  0  0  0  0  0  0  0  0  0  0
   19.5950    6.8010   32.5050 H   0  0  0  0  0  0  0  0  0  0  0  0
   18.0210    8.1500   33.7570 H   0  0  0  0  0  0  0  0  0  0  0  0
   18.1270    9.9050   33.7870 H   0  0  0  0  0  0  0  0  0  0  0  0
   22.7840    6.6510   30.4400 H   0  0  0  0  0  0  0  0  0  0  0  0
   21.4290    3.3140   29.8650 H   0  0  0  0  0  0  0  0  0  0  0  0
   22.1790    4.7070   28.9760 H   0  0  0  0  0  0  0  0  0  0  0  0
   24.5070    5.3700   29.4500 H   0  0  0  0  0  0  0  0  0  0  0  0
   28.4520    3.5860   30.4460 H   0  0  0  0  0  0  0  0  0  0  0  0
   28.7760    5.3690   30.1470 H   0  0  0  0  0  0  0  0  0  0  0  0
   28.2260    4.8050   31.8080 H   0  0  0  0  0  0  0  0  0  0  0  0
   26.8390    2.8370   32.0960 H   0  0  0  0  0  0  0  0  0  0  0  0
   24.7890    1.6150   32.7270 H   0  0  0  0  0  0  0  0  0  0  0  0
   22.6040    2.2120   31.7410 H   0  0  0  0  0  0  0  0  0  0  0  0
  1  2  1  0  0  0  0
  1 25  1  0  0  0  0
  1 26  1  0  0  0  0
  1 27  1  0  0  0  0
  2  3  1  0  0  0  0
  2 28  1  0  0  0  0
  2 29  1  0  0  0  0
  3  4  1  0  0  0  0
  4 10  2  0  0  0  0
  4  5  1  0  0  0  0
  5  6  2  0  0  0  0
  6  7  1  0  0  0  0
  6 13  1  0  0  0  0
  7  8  2  0  0  0  0
  7 30  1  0  0  0  0
  8  9  1  0  0  0  0
  8 10  1  0  0  0  0
  9 31  1  0  0  0  0
  9 32  1  0  0  0  0
 10 11  1  0  0  0  0
 11 12  3  0  0  0  0
 13 14  1  0  0  0  0
 13 33  1  0  0  0  0
 14 15  2  0  0  0  0
 14 16  1  0  0  0  0
 16 17  1  0  0  0  0
 16 34  1  0  0  0  0
 16 35  1  0  0  0  0
 17 24  2  0  0  0  0
 17 18  1  0  0  0  0
 18 19  2  0  0  0  0
 18 36  1  0  0  0  0
 19 20  1  0  0  0  0
 19 22  1  0  0  0  0
 20 21  1  0  0  0  0
 21 37  1  0  0  0  0
 21 38  1  0  0  0  0
 21 39  1  0  0  0  0
 22 23  2  0  0  0  0
 22 40  1  0  0  0  0
 23 24  1  0  0  0  0
 23 41  1  0  0  0  0
 24 42  1  0  0  0  0
M  END
$$$$
