p38a_2n
 OpenBabel02232411163D
Structure written by MMmdl.
 53 56  0  0  0  0  0  0  0  0999 V2000
   38.3280   36.6050   17.0610 C   0  0  0  0  0  0  0  0  0  0  0  0
   34.5710   34.9870   21.0340 C   0  0  0  0  0  0  0  0  0  0  0  0
   37.5320   36.1190   18.0940 C   0  0  0  0  0  0  0  0  0  0  0  0
   33.9900   38.9570   23.7570 C   0  0  0  0  0  0  0  0  0  0  0  0
   34.6820   37.8440   21.3340 C   0  0  0  0  0  0  0  0  0  0  0  0
   35.0890   37.2490   20.0900 C   0  0  0  0  0  0  0  0  0  0  0  0
   37.6960   36.7900   15.8230 C   0  0  0  0  0  0  0  0  0  0  0  0
   36.3520   36.4930   15.5910 C   0  0  0  0  0  0  0  0  0  0  0  0
   35.5780   35.9870   16.6400 C   0  0  0  0  0  0  0  0  0  0  0  0
   34.2890   37.0270   22.4360 C   0  0  0  0  0  0  0  0  0  0  0  0
   34.6720   39.2520   21.5320 C   0  0  0  0  0  0  0  0  0  0  0  0
   35.0620   35.9030   19.9740 C   0  0  0  0  0  0  0  0  0  0  0  0
   36.1750   35.7910   17.8880 C   0  0  0  0  0  0  0  0  0  0  0  0
   38.0450   35.9640   19.3080 F   0  0  0  0  0  0  0  0  0  0  0  0
   35.4420   35.1290   18.8790 O   0  0  0  0  0  0  0  0  0  0  0  0
   34.3430   39.8200   22.6980 N   0  0  0  0  0  0  0  0  0  0  0  0
   34.4440   33.7880   20.9170 O   0  0  0  0  0  0  0  0  0  0  0  0
   34.2160   35.6300   22.2750 N   0  0  0  0  0  0  0  0  0  0  0  0
   33.9690   37.5750   23.6570 N   0  0  0  0  0  0  0  0  0  0  0  0
   33.6030   39.5650   24.9260 N   0  0  0  0  0  0  0  0  0  0  0  0
   39.3780   36.8660   17.2180 H   0  0  0  0  0  0  0  0  0  0  0  0
   35.4170   37.9090   19.2840 H   0  0  0  0  0  0  0  0  0  0  0  0
   35.8930   36.6650   14.6160 H   0  0  0  0  0  0  0  0  0  0  0  0
   34.5180   35.7630   16.4800 H   0  0  0  0  0  0  0  0  0  0  0  0
   34.9420   39.9270   20.7010 H   0  0  0  0  0  0  0  0  0  0  0  0
   33.7160   40.5970   25.0190 H   0  0  0  0  0  0  0  0  0  0  0  0
   38.4040   37.3140   14.8260 F   0  0  0  0  0  0  0  0  0  0  0  0
   32.1400   38.9380   28.4000 C   0  0  0  0  0  0  0  0  0  0  0  0
   32.3790   39.6710   27.0720 C   0  0  0  0  0  0  0  0  0  0  0  0
   33.3280   38.8300   26.1940 C   0  0  0  0  0  0  0  0  0  0  0  0
   34.6400   38.5500   26.9590 C   0  0  0  0  0  0  0  0  0  0  0  0
   34.3030   37.8490   28.2810 C   0  0  0  0  0  0  0  0  0  0  0  0
   33.3780   38.6280   29.0760 O   0  0  0  0  0  0  0  0  0  0  0  0
   31.5690   37.9950   28.2350 H   0  0  0  0  0  0  0  0  0  0  0  0
   31.6310   39.6020   29.1370 H   0  0  0  0  0  0  0  0  0  0  0  0
   32.8260   40.6740   27.2720 H   0  0  0  0  0  0  0  0  0  0  0  0
   31.4090   39.8210   26.5420 H   0  0  0  0  0  0  0  0  0  0  0  0
   32.8050   37.8670   25.9360 H   0  0  0  0  0  0  0  0  0  0  0  0
   35.3080   37.8910   26.3570 H   0  0  0  0  0  0  0  0  0  0  0  0
   35.1760   39.5090   27.1540 H   0  0  0  0  0  0  0  0  0  0  0  0
   33.8590   36.8420   28.0870 H   0  0  0  0  0  0  0  0  0  0  0  0
   35.1920   37.7930   28.9490 H   0  0  0  0  0  0  0  0  0  0  0  0
   33.8050   34.7440   23.4110 C   0  0  0  0  0  0  0  0  0  0  0  0
   32.9420   35.2320   23.9460 H   0  0  0  0  0  0  0  0  0  0  0  0
   33.4410   33.7680   22.9850 H   0  0  0  0  0  0  0  0  0  0  0  0
   34.9710   34.4820   24.3810 C   0  0  0  0  0  0  0  0  0  0  0  0
   35.4630   33.5070   24.1390 H   0  0  0  0  0  0  0  0  0  0  0  0
   35.7390   35.2880   24.2960 H   0  0  0  0  0  0  0  0  0  0  0  0
   34.4680   34.4270   25.8300 C   0  0  0  0  0  0  0  0  0  0  0  0
   33.7520   33.5860   25.9900 H   0  0  0  0  0  0  0  0  0  0  0  0
   35.3170   34.3800   26.5500 H   0  0  0  0  0  0  0  0  0  0  0  0
   33.7130   35.6040   26.1780 O   0  0  0  0  0  0  0  0  0  0  0  0
   33.9040   36.3170   25.5260 H   0  0  0  0  0  0  0  0  0  0  0  0
  1  3  2  0  0  0  0
  1  7  1  0  0  0  0
  1 21  1  0  0  0  0
  2 12  1  0  0  0  0
  2 17  2  0  0  0  0
  2 18  1  0  0  0  0
  3 13  1  0  0  0  0
  3 14  1  0  0  0  0
  4 16  2  0  0  0  0
  4 19  1  0  0  0  0
  4 20  1  0  0  0  0
  5  6  1  0  0  0  0
  5 10  1  0  0  0  0
  5 11  2  0  0  0  0
  6 12  2  0  0  0  0
  6 22  1  0  0  0  0
  7  8  2  0  0  0  0
  7 27  1  0  0  0  0
  8  9  1  0  0  0  0
  8 23  1  0  0  0  0
  9 13  2  0  0  0  0
  9 24  1  0  0  0  0
 10 18  1  0  0  0  0
 10 19  2  0  0  0  0
 11 16  1  0  0  0  0
 11 25  1  0  0  0  0
 12 15  1  0  0  0  0
 13 15  1  0  0  0  0
 18 43  1  0  0  0  0
 20 26  1  0  0  0  0
 20 30  1  0  0  0  0
 28 29  1  0  0  0  0
 28 33  1  0  0  0  0
 28 34  1  0  0  0  0
 28 35  1  0  0  0  0
 29 30  1  0  0  0  0
 29 36  1  0  0  0  0
 29 37  1  0  0  0  0
 30 31  1  0  0  0  0
 30 38  1  0  0  0  0
 31 32  1  0  0  0  0
 31 39  1  0  0  0  0
 31 40  1  0  0  0  0
 32 33  1  0  0  0  0
 32 41  1  0  0  0  0
 32 42  1  0  0  0  0
 43 44  1  0  0  0  0
 43 45  1  0  0  0  0
 43 46  1  0  0  0  0
 46 47  1  0  0  0  0
 46 48  1  0  0  0  0
 46 49  1  0  0  0  0
 49 50  1  0  0  0  0
 49 51  1  0  0  0  0
 49 52  1  0  0  0  0
 52 53  1  0  0  0  0
M  END
$$$$
