p38a_3flw
 OpenBabel02232411163D
Structure written by MMmdl.
 49 51  0  0  0  0  0  0  0  0999 V2000
   36.3970   36.0990   15.7450 C   0  0  0  0  0  0  0  0  0  0  0  0
   37.6870   36.6160   15.9200 C   0  0  0  0  0  0  0  0  0  0  0  0
   33.2610   37.5030   26.6040 C   0  0  0  0  0  0  0  0  0  0  0  0
   32.3920   36.8420   27.6850 C   0  0  0  0  0  0  0  0  0  0  0  0
   32.3480   39.8380   27.1990 C   0  0  0  0  0  0  0  0  0  0  0  0
   33.0760   34.8420   23.2410 C   0  0  0  0  0  0  0  0  0  0  0  0
   34.5630   35.0550   16.8030 F   0  0  0  0  0  0  0  0  0  0  0  0
   35.7700   35.5980   16.8820 C   0  0  0  0  0  0  0  0  0  0  0  0
   38.2870   37.1610   14.8650 F   0  0  0  0  0  0  0  0  0  0  0  0
   38.3550   36.6210   17.1480 C   0  0  0  0  0  0  0  0  0  0  0  0
   37.6890   36.1470   18.2840 C   0  0  0  0  0  0  0  0  0  0  0  0
   36.3960   35.6370   18.1450 C   0  0  0  0  0  0  0  0  0  0  0  0
   35.7090   34.9960   19.1830 O   0  0  0  0  0  0  0  0  0  0  0  0
   35.1780   35.8170   20.1740 C   0  0  0  0  0  0  0  0  0  0  0  0
   35.3020   37.1570   20.3130 C   0  0  0  0  0  0  0  0  0  0  0  0
   34.7210   37.7870   21.4690 C   0  0  0  0  0  0  0  0  0  0  0  0
   34.8160   39.1820   21.7240 C   0  0  0  0  0  0  0  0  0  0  0  0
   34.3720   39.7530   22.8540 N   0  0  0  0  0  0  0  0  0  0  0  0
   34.4090   34.9460   21.1050 C   0  0  0  0  0  0  0  0  0  0  0  0
   34.2320   33.7560   20.9620 O   0  0  0  0  0  0  0  0  0  0  0  0
   33.8480   35.6290   22.2390 N   0  0  0  0  0  0  0  0  0  0  0  0
   34.0350   37.0070   22.4450 C   0  0  0  0  0  0  0  0  0  0  0  0
   33.5490   37.5630   23.6020 N   0  0  0  0  0  0  0  0  0  0  0  0
   33.7810   38.9070   23.8170 C   0  0  0  0  0  0  0  0  0  0  0  0
   33.4790   39.4710   25.0380 N   0  0  0  0  0  0  0  0  0  0  0  0
   32.6210   38.8070   26.0810 C   0  0  0  0  0  0  0  0  0  0  0  0
   33.5890   40.2730   27.9960 C   0  0  0  0  0  0  0  0  0  0  0  0
   33.2110   40.8370   29.2640 O   0  0  0  0  0  0  0  0  0  0  0  0
   32.8350   35.4990   27.9530 O   0  0  0  0  0  0  0  0  0  0  0  0
   35.9020   36.1090   14.7710 H   0  0  0  0  0  0  0  0  0  0  0  0
   34.2840   37.7030   26.9970 H   0  0  0  0  0  0  0  0  0  0  0  0
   33.3640   36.7860   25.7500 H   0  0  0  0  0  0  0  0  0  0  0  0
   32.5090   37.3390   28.6750 H   0  0  0  0  0  0  0  0  0  0  0  0
   31.3210   36.8050   27.3710 H   0  0  0  0  0  0  0  0  0  0  0  0
   31.8810   40.7400   26.7390 H   0  0  0  0  0  0  0  0  0  0  0  0
   31.6040   39.3950   27.9060 H   0  0  0  0  0  0  0  0  0  0  0  0
   32.1060   35.3600   23.4720 H   0  0  0  0  0  0  0  0  0  0  0  0
   32.8550   33.8180   22.8400 H   0  0  0  0  0  0  0  0  0  0  0  0
   33.6660   34.7470   24.1920 H   0  0  0  0  0  0  0  0  0  0  0  0
   39.3710   37.0150   17.2340 H   0  0  0  0  0  0  0  0  0  0  0  0
   38.1760   36.2030   19.2610 H   0  0  0  0  0  0  0  0  0  0  0  0
   35.8340   37.7870   19.5970 H   0  0  0  0  0  0  0  0  0  0  0  0
   35.2680   39.8470   20.9700 H   0  0  0  0  0  0  0  0  0  0  0  0
   33.5710   40.5030   25.1340 H   0  0  0  0  0  0  0  0  0  0  0  0
   31.6300   38.5510   25.6040 H   0  0  0  0  0  0  0  0  0  0  0  0
   34.2190   39.4060   28.2940 H   0  0  0  0  0  0  0  0  0  0  0  0
   34.1750   41.0310   27.4290 H   0  0  0  0  0  0  0  0  0  0  0  0
   32.6990   41.6910   29.0890 H   0  0  0  0  0  0  0  0  0  0  0  0
   32.8080   34.9750   27.1100 H   0  0  0  0  0  0  0  0  0  0  0  0
  1  2  2  0  0  0  0
  1  8  1  0  0  0  0
  1 30  1  0  0  0  0
  2  9  1  0  0  0  0
  2 10  1  0  0  0  0
  3  4  1  0  0  0  0
  3 26  1  0  0  0  0
  3 31  1  0  0  0  0
  3 32  1  0  0  0  0
  4 29  1  0  0  0  0
  4 33  1  0  0  0  0
  4 34  1  0  0  0  0
  5 26  1  0  0  0  0
  5 27  1  0  0  0  0
  5 35  1  0  0  0  0
  5 36  1  0  0  0  0
  6 21  1  0  0  0  0
  6 37  1  0  0  0  0
  6 38  1  0  0  0  0
  6 39  1  0  0  0  0
  7  8  1  0  0  0  0
  8 12  2  0  0  0  0
 10 11  2  0  0  0  0
 10 40  1  0  0  0  0
 11 12  1  0  0  0  0
 11 41  1  0  0  0  0
 12 13  1  0  0  0  0
 13 14  1  0  0  0  0
 14 15  2  0  0  0  0
 14 19  1  0  0  0  0
 15 16  1  0  0  0  0
 15 42  1  0  0  0  0
 16 17  2  0  0  0  0
 16 22  1  0  0  0  0
 17 18  1  0  0  0  0
 17 43  1  0  0  0  0
 18 24  2  0  0  0  0
 19 20  2  0  0  0  0
 19 21  1  0  0  0  0
 21 22  1  0  0  0  0
 22 23  2  0  0  0  0
 23 24  1  0  0  0  0
 24 25  1  0  0  0  0
 25 26  1  0  0  0  0
 25 44  1  0  0  0  0
 26 45  1  0  0  0  0
 27 28  1  0  0  0  0
 27 46  1  0  0  0  0
 27 47  1  0  0  0  0
 28 48  1  0  0  0  0
 29 49  1  0  0  0  0
M  END
$$$$
