CAT-13f
 OpenBabel02232411143D
Structure written by MMmdl.
 49 52  0  0  1  0  0  0  0  0999 V2000
   11.6260   -1.8940    1.1190 C   0  0  0  0  0  0  0  0  0  0  0  0
   12.9600   -1.7540    0.4970 N   0  0  0  0  0  0  0  0  0  0  0  0
   14.1670   -1.9970    1.1610 C   0  0  0  0  0  0  0  0  0  0  0  0
   14.3360   -2.2200    2.4970 N   0  0  0  0  0  0  0  0  0  0  0  0
   15.2230   -1.9800    0.2420 N   0  3  0  0  0  0  0  0  0  0  0  0
   14.6870   -2.1130   -1.1700 C   0  0  1  0  0  0  0  0  0  0  0  0
   15.3010   -1.0730   -2.0910 C   0  0  0  0  0  0  0  0  0  0  0  0
   15.9300   -1.4010   -3.2980 C   0  0  0  0  0  0  0  0  0  0  0  0
   16.3700   -0.3840   -4.1520 C   0  0  0  0  0  0  0  0  0  0  0  0
   16.1940    0.9600   -3.8180 C   0  0  0  0  0  0  0  0  0  0  0  0
   15.5960    1.3030   -2.5960 C   0  0  0  0  0  0  0  0  0  0  0  0
   15.3670    2.7040   -2.1800 C   0  0  0  0  0  0  0  0  0  0  0  0
   14.8910    3.6630   -3.0860 C   0  0  0  0  0  0  0  0  0  0  0  0
   14.5410    4.9410   -2.6360 C   0  0  0  0  0  0  0  0  0  0  0  0
   14.6360    5.2670   -1.2800 C   0  0  0  0  0  0  0  0  0  0  0  0
   15.1170    4.3040   -0.3910 C   0  0  0  0  0  0  0  0  0  0  0  0
   15.1190    4.6280    1.3040 Cl  0  0  0  0  0  0  0  0  0  0  0  0
   15.5330    3.0480   -0.8260 C   0  0  0  0  0  0  0  0  0  0  0  0
   15.1480    0.2770   -1.7480 C   0  0  0  0  0  0  0  0  0  0  0  0
   14.7670   -3.5730   -1.6930 C   0  0  0  0  0  0  0  0  0  0  0  0
   16.2180   -4.0960   -1.6140 C   0  0  0  0  0  0  0  0  0  0  0  0
   16.2620   -5.1550   -0.4970 C   0  0  0  0  0  0  0  0  0  0  0  0
   14.8590   -5.2240    0.1360 C   0  0  0  0  0  0  0  0  0  0  0  0
   13.9120   -4.5750   -0.8840 C   0  0  0  0  0  0  0  0  0  0  0  0
   13.1780   -1.7600   -0.9650 C   0  0  0  0  0  0  0  0  0  0  0  0
   12.3050   -1.5120   -1.7340 O   0  0  0  0  0  0  0  0  0  0  0  0
   11.0610   -0.9330    0.9800 H   0  0  0  0  0  0  0  0  0  0  0  0
   11.0680   -2.7390    0.6320 H   0  0  0  0  0  0  0  0  0  0  0  0
   11.7140   -2.1150    2.2130 H   0  0  0  0  0  0  0  0  0  0  0  0
   13.6500   -1.8750    3.2130 H   0  0  0  0  0  0  0  0  0  0  0  0
   16.1240   -2.4450    0.5430 H   0  0  0  0  0  0  0  0  0  0  0  0
   16.0850   -2.4360   -3.6030 H   0  0  0  0  0  0  0  0  0  0  0  0
   16.8550   -0.6540   -5.0970 H   0  0  0  0  0  0  0  0  0  0  0  0
   16.5220    1.7320   -4.5200 H   0  0  0  0  0  0  0  0  0  0  0  0
   14.7670    3.4100   -4.1430 H   0  0  0  0  0  0  0  0  0  0  0  0
   14.1600    5.6790   -3.3520 H   0  0  0  0  0  0  0  0  0  0  0  0
   14.3190    6.2460   -0.9230 H   0  0  0  0  0  0  0  0  0  0  0  0
   15.9570    2.3270   -0.1250 H   0  0  0  0  0  0  0  0  0  0  0  0
   14.6590    0.5250   -0.8090 H   0  0  0  0  0  0  0  0  0  0  0  0
   14.4040   -3.5730   -2.7500 H   0  0  0  0  0  0  0  0  0  0  0  0
   16.5190   -4.5400   -2.5830 H   0  0  0  0  0  0  0  0  0  0  0  0
   16.9350   -3.2770   -1.3750 H   0  0  0  0  0  0  0  0  0  0  0  0
   17.0190   -4.8360    0.2400 H   0  0  0  0  0  0  0  0  0  0  0  0
   16.5490   -6.1460   -0.8920 H   0  0  0  0  0  0  0  0  0  0  0  0
   14.5540   -6.2720    0.3440 H   0  0  0  0  0  0  0  0  0  0  0  0
   14.8420   -4.6500    1.0910 H   0  0  0  0  0  0  0  0  0  0  0  0
   13.0360   -4.1310   -0.3790 H   0  0  0  0  0  0  0  0  0  0  0  0
   13.5340   -5.3530   -1.5850 H   0  0  0  0  0  0  0  0  0  0  0  0
   15.3190   -2.3000    2.8810 H   0  0  0  0  0  0  0  0  0  0  0  0
  1  2  1  0  0  0  0
  1 27  1  0  0  0  0
  1 28  1  0  0  0  0
  1 29  1  0  0  0  0
  2  3  1  0  0  0  0
  2 25  1  0  0  0  0
  3  4  1  0  0  0  0
  3  5  2  0  0  0  0
  4 30  1  0  0  0  0
  4 49  1  0  0  0  0
  5  6  1  0  0  0  0
  5 31  1  0  0  0  0
  6  7  1  6  0  0  0
  6 20  1  0  0  0  0
  6 25  1  0  0  0  0
  7  8  2  0  0  0  0
  7 19  1  0  0  0  0
  8  9  1  0  0  0  0
  8 32  1  0  0  0  0
  9 10  2  0  0  0  0
  9 33  1  0  0  0  0
 10 11  1  0  0  0  0
 10 34  1  0  0  0  0
 11 12  1  0  0  0  0
 11 19  2  0  0  0  0
 12 13  2  0  0  0  0
 12 18  1  0  0  0  0
 13 14  1  0  0  0  0
 13 35  1  0  0  0  0
 14 15  2  0  0  0  0
 14 36  1  0  0  0  0
 15 16  1  0  0  0  0
 15 37  1  0  0  0  0
 16 17  1  0  0  0  0
 16 18  2  0  0  0  0
 18 38  1  0  0  0  0
 19 39  1  0  0  0  0
 20 21  1  0  0  0  0
 20 24  1  0  0  0  0
 20 40  1  0  0  0  0
 21 22  1  0  0  0  0
 21 41  1  0  0  0  0
 21 42  1  0  0  0  0
 22 23  1  0  0  0  0
 22 43  1  0  0  0  0
 22 44  1  0  0  0  0
 23 24  1  0  0  0  0
 23 45  1  0  0  0  0
 23 46  1  0  0  0  0
 24 47  1  0  0  0  0
 24 48  1  0  0  0  0
 25 26  2  0  0  0  0
M  CHG  1   5   1
M  END
$$$$
