18639-1
 OpenBabel02232411163D
Structure written by MMmdl.
 48 49  0  0  0  0  0  0  0  0999 V2000
   23.8710   12.6060   30.3450 C   0  0  0  0  0  0  0  0  0  0  0  0
   23.4060   11.1650   30.4420 C   0  0  0  0  0  0  0  0  0  0  0  0
   22.1630   11.2670   31.2510 O   0  0  0  0  0  0  0  0  0  0  0  0
   21.5370   10.1250   31.6060 C   0  0  0  0  0  0  0  0  0  0  0  0
   22.0170    8.9390   31.1630 N   0  0  0  0  0  0  0  0  0  0  0  0
   21.2960    7.8000   31.4870 C   0  0  0  0  0  0  0  0  0  0  0  0
   20.1440    7.8330   32.2650 C   0  0  0  0  0  0  0  0  0  0  0  0
   19.6560    9.0800   32.7390 C   0  0  0  0  0  0  0  0  0  0  0  0
   18.5100    9.1140   33.4910 N   0  0  0  0  0  0  0  0  0  0  0  0
   20.3630   10.2790   32.4040 C   0  0  0  0  0  0  0  0  0  0  0  0
   19.9520   11.5760   32.7760 C   0  0  0  0  0  0  0  0  0  0  0  0
   19.6620   12.6680   33.0410 N   0  0  0  0  0  0  0  0  0  0  0  0
   21.8670    6.6330   30.9260 N   0  0  0  0  0  0  0  0  0  0  0  0
   21.2600    5.3620   30.8470 C   0  0  0  0  0  0  0  0  0  0  0  0
   20.1700    5.1200   31.3200 O   0  0  0  0  0  0  0  0  0  0  0  0
   22.0690    4.3500   30.0430 C   0  0  0  0  0  0  0  0  0  0  0  0
   23.4190    4.0400   30.6200 C   0  0  0  0  0  0  0  0  0  0  0  0
   24.5410    4.8760   30.3210 C   0  0  0  0  0  0  0  0  0  0  0  0
   24.2190    5.9280   29.4740 O   0  0  0  0  0  0  0  0  0  0  0  0
   25.2100    6.9770   29.2950 C   0  0  0  0  0  0  0  0  0  0  0  0
   25.8050    4.6060   30.8200 C   0  0  0  0  0  0  0  0  0  0  0  0
   25.9950    3.4840   31.6550 C   0  0  0  0  0  0  0  0  0  0  0  0
   27.3310    3.1990   32.1840 N   0  3  0  0  0  0  0  0  0  0  0  0
   27.4290    2.4100   33.1110 O   0  5  0  0  0  0  0  0  0  0  0  0
   28.2950    3.7570   31.6720 O   0  0  0  0  0  0  0  0  0  0  0  0
   24.8990    2.6420   31.9520 C   0  0  0  0  0  0  0  0  0  0  0  0
   23.6190    2.9260   31.4200 C   0  0  0  0  0  0  0  0  0  0  0  0
   25.2080    1.5950   32.7680 O   0  0  0  0  0  0  0  0  0  0  0  0
   24.1870    0.5730   32.9750 C   0  0  0  0  0  0  0  0  0  0  0  0
   24.7680   12.6460   29.6760 H   0  0  0  0  0  0  0  0  0  0  0  0
   23.0780   13.2530   29.9010 H   0  0  0  0  0  0  0  0  0  0  0  0
   24.1500   13.0120   31.3420 H   0  0  0  0  0  0  0  0  0  0  0  0
   23.1260   10.7390   29.4520 H   0  0  0  0  0  0  0  0  0  0  0  0
   24.1270   10.5170   30.9870 H   0  0  0  0  0  0  0  0  0  0  0  0
   19.5950    6.9170   32.4990 H   0  0  0  0  0  0  0  0  0  0  0  0
   18.0110    8.2390   33.7430 H   0  0  0  0  0  0  0  0  0  0  0  0
   18.1020    9.9960   33.7990 H   0  0  0  0  0  0  0  0  0  0  0  0
   22.7880    6.7710   30.4390 H   0  0  0  0  0  0  0  0  0  0  0  0
   21.4710    3.4020   29.9650 H   0  0  0  0  0  0  0  0  0  0  0  0
   22.2070    4.7690   29.0060 H   0  0  0  0  0  0  0  0  0  0  0  0
   25.5350    7.3800   30.2780 H   0  0  0  0  0  0  0  0  0  0  0  0
   26.0570    6.5820   28.6950 H   0  0  0  0  0  0  0  0  0  0  0  0
   24.6230    7.7350   28.7250 H   0  0  0  0  0  0  0  0  0  0  0  0
   26.6650    5.2390   30.5680 H   0  0  0  0  0  0  0  0  0  0  0  0
   22.7830    2.2570   31.6390 H   0  0  0  0  0  0  0  0  0  0  0  0
   24.7440   -0.1710   33.5940 H   0  0  0  0  0  0  0  0  0  0  0  0
   23.3290    0.9980   33.5380 H   0  0  0  0  0  0  0  0  0  0  0  0
   23.8840    0.1340   32.0000 H   0  0  0  0  0  0  0  0  0  0  0  0
  1  2  1  0  0  0  0
  1 30  1  0  0  0  0
  1 31  1  0  0  0  0
  1 32  1  0  0  0  0
  2  3  1  0  0  0  0
  2 33  1  0  0  0  0
  2 34  1  0  0  0  0
  3  4  1  0  0  0  0
  4 10  2  0  0  0  0
  4  5  1  0  0  0  0
  5  6  2  0  0  0  0
  6  7  1  0  0  0  0
  6 13  1  0  0  0  0
  7  8  2  0  0  0  0
  7 35  1  0  0  0  0
  8  9  1  0  0  0  0
  8 10  1  0  0  0  0
  9 36  1  0  0  0  0
  9 37  1  0  0  0  0
 10 11  1  0  0  0  0
 11 12  3  0  0  0  0
 13 14  1  0  0  0  0
 13 38  1  0  0  0  0
 14 15  2  0  0  0  0
 14 16  1  0  0  0  0
 16 17  1  0  0  0  0
 16 39  1  0  0  0  0
 16 40  1  0  0  0  0
 17 27  2  0  0  0  0
 17 18  1  0  0  0  0
 18 19  1  0  0  0  0
 18 21  2  0  0  0  0
 19 20  1  0  0  0  0
 20 41  1  0  0  0  0
 20 42  1  0  0  0  0
 20 43  1  0  0  0  0
 21 22  1  0  0  0  0
 21 44  1  0  0  0  0
 22 23  1  0  0  0  0
 22 26  2  0  0  0  0
 23 24  1  0  0  0  0
 23 25  2  0  0  0  0
 26 27  1  0  0  0  0
 26 28  1  0  0  0  0
 27 45  1  0  0  0  0
 28 29  1  0  0  0  0
 29 46  1  0  0  0  0
 29 47  1  0  0  0  0
 29 48  1  0  0  0  0
M  CHG  2  23   1  24  -1
M  END
$$$$
