p38a_2u
 OpenBabel02232411163D
Structure written by MMmdl.
 64 68  0  0  0  0  0  0  0  0999 V2000
   38.2090   36.4780   17.2610 C   0  0  0  0  0  0  0  0  0  0  0  0
   34.5190   35.1790   21.4500 C   0  0  0  0  0  0  0  0  0  0  0  0
   37.4420   36.0630   18.3460 C   0  0  0  0  0  0  0  0  0  0  0  0
   34.0850   39.3280   23.9010 C   0  0  0  0  0  0  0  0  0  0  0  0
   34.6580   38.0540   21.5230 C   0  0  0  0  0  0  0  0  0  0  0  0
   35.0320   37.3650   20.3190 C   0  0  0  0  0  0  0  0  0  0  0  0
   37.5400   36.6060   16.0360 C   0  0  0  0  0  0  0  0  0  0  0  0
   36.1830   36.3160   15.8670 C   0  0  0  0  0  0  0  0  0  0  0  0
   35.4370   35.8940   16.9720 C   0  0  0  0  0  0  0  0  0  0  0  0
   34.2990   37.3150   22.6880 C   0  0  0  0  0  0  0  0  0  0  0  0
   34.6440   39.4720   21.6290 C   0  0  0  0  0  0  0  0  0  0  0  0
   35.0030   36.0130   20.3130 C   0  0  0  0  0  0  0  0  0  0  0  0
   36.0710   35.7580   18.2110 C   0  0  0  0  0  0  0  0  0  0  0  0
   38.0030   35.9500   19.5430 F   0  0  0  0  0  0  0  0  0  0  0  0
   35.3650   35.1660   19.2670 O   0  0  0  0  0  0  0  0  0  0  0  0
   34.3710   40.1200   22.7700 N   0  0  0  0  0  0  0  0  0  0  0  0
   34.3800   33.9760   21.4020 O   0  0  0  0  0  0  0  0  0  0  0  0
   34.2010   35.9070   22.6500 N   0  0  0  0  0  0  0  0  0  0  0  0
   34.0360   37.9470   23.8750 N   0  0  0  0  0  0  0  0  0  0  0  0
   33.7790   39.9710   25.0760 N   0  0  0  0  0  0  0  0  0  0  0  0
   39.2700   36.7270   17.3650 H   0  0  0  0  0  0  0  0  0  0  0  0
   35.3380   37.9590   19.4540 H   0  0  0  0  0  0  0  0  0  0  0  0
   35.6970   36.4270   14.8940 H   0  0  0  0  0  0  0  0  0  0  0  0
   34.3670   35.6870   16.8620 H   0  0  0  0  0  0  0  0  0  0  0  0
   34.8590   40.0850   20.7380 H   0  0  0  0  0  0  0  0  0  0  0  0
   33.9060   40.9990   25.1490 H   0  0  0  0  0  0  0  0  0  0  0  0
   38.2260   37.0620   14.9910 F   0  0  0  0  0  0  0  0  0  0  0  0
   32.5720   39.3720   28.6530 C   0  0  0  0  0  0  0  0  0  0  0  0
   32.6590   40.0310   27.2710 C   0  0  0  0  0  0  0  0  0  0  0  0
   33.6330   39.2400   26.3730 C   0  0  0  0  0  0  0  0  0  0  0  0
   35.0020   39.0900   27.0700 C   0  0  0  0  0  0  0  0  0  0  0  0
   34.8110   38.4750   28.4620 C   0  0  0  0  0  0  0  0  0  0  0  0
   33.8750   39.2330   29.2630 O   0  0  0  0  0  0  0  0  0  0  0  0
   32.0930   38.3680   28.5860 H   0  0  0  0  0  0  0  0  0  0  0  0
   32.0440   40.0340   29.3780 H   0  0  0  0  0  0  0  0  0  0  0  0
   33.0150   41.0830   27.3860 H   0  0  0  0  0  0  0  0  0  0  0  0
   31.6490   40.0540   26.7980 H   0  0  0  0  0  0  0  0  0  0  0  0
   33.2010   38.2200   26.1670 H   0  0  0  0  0  0  0  0  0  0  0  0
   35.6650   38.4270   26.4660 H   0  0  0  0  0  0  0  0  0  0  0  0
   35.4920   40.0890   27.1610 H   0  0  0  0  0  0  0  0  0  0  0  0
   34.4510   37.4230   28.3850 H   0  0  0  0  0  0  0  0  0  0  0  0
   35.7460   38.5440   29.0640 H   0  0  0  0  0  0  0  0  0  0  0  0
   34.1500   33.0590   25.2460 C   0  0  0  0  0  0  0  0  0  0  0  0
   34.7730   34.2370   24.4550 C   0  0  0  0  0  0  0  0  0  0  0  0
   33.6970   35.1750   23.8780 C   0  0  0  0  0  0  0  0  0  0  0  0
   32.4030   34.4070   23.5600 C   0  0  0  0  0  0  0  0  0  0  0  0
   31.7950   33.8730   24.8720 C   0  0  0  0  0  0  0  0  0  0  0  0
   34.8740   32.8060   26.0660 H   0  0  0  0  0  0  0  0  0  0  0  0
   34.0450   32.1780   24.5580 H   0  0  0  0  0  0  0  0  0  0  0  0
   35.4080   33.7990   23.6500 H   0  0  0  0  0  0  0  0  0  0  0  0
   35.4280   34.8300   25.1390 H   0  0  0  0  0  0  0  0  0  0  0  0
   33.4560   35.9480   24.6700 H   0  0  0  0  0  0  0  0  0  0  0  0
   31.6560   35.0810   23.0770 H   0  0  0  0  0  0  0  0  0  0  0  0
   32.6160   33.5610   22.8630 H   0  0  0  0  0  0  0  0  0  0  0  0
   31.2400   34.7110   25.3780 H   0  0  0  0  0  0  0  0  0  0  0  0
   31.0820   33.0480   24.6050 H   0  0  0  0  0  0  0  0  0  0  0  0
   32.8320   33.4050   25.8500 N   0  0  0  0  0  0  0  0  0  0  0  0
   32.2330   32.5280   27.2100 S   0  0  0  0  0  0  0  0  0  0  0  0
   31.0100   31.8070   26.7990 O   0  0  0  0  0  0  0  0  0  0  0  0
   31.9510   33.4980   28.2850 O   0  0  0  0  0  0  0  0  0  0  0  0
   33.4590   31.4130   27.7190 C   0  0  0  0  0  0  0  0  0  0  0  0
   34.3580   31.9200   28.1570 H   0  0  0  0  0  0  0  0  0  0  0  0
   33.0730   30.7330   28.5300 H   0  0  0  0  0  0  0  0  0  0  0  0
   33.8060   30.7300   26.9000 H   0  0  0  0  0  0  0  0  0  0  0  0
  1  3  2  0  0  0  0
  1  7  1  0  0  0  0
  1 21  1  0  0  0  0
  2 12  1  0  0  0  0
  2 17  2  0  0  0  0
  2 18  1  0  0  0  0
  3 13  1  0  0  0  0
  3 14  1  0  0  0  0
  4 16  2  0  0  0  0
  4 19  1  0  0  0  0
  4 20  1  0  0  0  0
  5  6  1  0  0  0  0
  5 10  1  0  0  0  0
  5 11  2  0  0  0  0
  6 12  2  0  0  0  0
  6 22  1  0  0  0  0
  7  8  2  0  0  0  0
  7 27  1  0  0  0  0
  8  9  1  0  0  0  0
  8 23  1  0  0  0  0
  9 13  2  0  0  0  0
  9 24  1  0  0  0  0
 10 18  1  0  0  0  0
 10 19  2  0  0  0  0
 11 16  1  0  0  0  0
 11 25  1  0  0  0  0
 12 15  1  0  0  0  0
 13 15  1  0  0  0  0
 18 45  1  0  0  0  0
 20 26  1  0  0  0  0
 20 30  1  0  0  0  0
 28 29  1  0  0  0  0
 28 33  1  0  0  0  0
 28 34  1  0  0  0  0
 28 35  1  0  0  0  0
 29 30  1  0  0  0  0
 29 36  1  0  0  0  0
 29 37  1  0  0  0  0
 30 31  1  0  0  0  0
 30 38  1  0  0  0  0
 31 32  1  0  0  0  0
 31 39  1  0  0  0  0
 31 40  1  0  0  0  0
 32 33  1  0  0  0  0
 32 41  1  0  0  0  0
 32 42  1  0  0  0  0
 43 44  1  0  0  0  0
 43 48  1  0  0  0  0
 43 49  1  0  0  0  0
 43 57  1  0  0  0  0
 44 45  1  0  0  0  0
 44 50  1  0  0  0  0
 44 51  1  0  0  0  0
 45 46  1  0  0  0  0
 45 52  1  0  0  0  0
 46 47  1  0  0  0  0
 46 53  1  0  0  0  0
 46 54  1  0  0  0  0
 47 55  1  0  0  0  0
 47 56  1  0  0  0  0
 47 57  1  0  0  0  0
 57 58  1  0  0  0  0
 58 59  2  0  0  0  0
 58 60  2  0  0  0  0
 58 61  1  0  0  0  0
 61 62  1  0  0  0  0
 61 63  1  0  0  0  0
 61 64  1  0  0  0  0
M  END
$$$$
