p38a_2j
 OpenBabel02232411163D
Structure written by MMmdl.
 48 51  0  0  0  0  0  0  0  0999 V2000
   34.5170   38.3970   27.2470 C   0  0  0  0  0  0  0  0  0  0  0  0
   33.9780   37.9420   28.6100 C   0  0  0  0  0  0  0  0  0  0  0  0
   31.7170   38.5730   28.0330 C   0  0  0  0  0  0  0  0  0  0  0  0
   32.1430   39.0450   26.6370 C   0  0  0  0  0  0  0  0  0  0  0  0
   36.6570   35.7730   16.0890 C   0  0  0  0  0  0  0  0  0  0  0  0
   32.5910   37.5370   28.5340 O   0  0  0  0  0  0  0  0  0  0  0  0
   34.2050   35.1460   21.7000 C   0  0  0  0  0  0  0  0  0  0  0  0
   35.6120   35.3980   16.9340 C   0  0  0  0  0  0  0  0  0  0  0  0
   34.1650   39.2990   24.1830 C   0  0  0  0  0  0  0  0  0  0  0  0
   33.6150   39.5080   26.6810 C   0  0  0  0  0  0  0  0  0  0  0  0
   34.4310   37.9990   21.7650 C   0  0  0  0  0  0  0  0  0  0  0  0
   34.5320   37.2920   20.5240 C   0  0  0  0  0  0  0  0  0  0  0  0
   37.9790   36.2660   18.0970 C   0  0  0  0  0  0  0  0  0  0  0  0
   36.8960   35.8960   18.8990 C   0  0  0  0  0  0  0  0  0  0  0  0
   34.2180   37.2770   22.9780 C   0  0  0  0  0  0  0  0  0  0  0  0
   34.5160   39.4160   21.8590 C   0  0  0  0  0  0  0  0  0  0  0  0
   34.4250   35.9380   20.4820 C   0  0  0  0  0  0  0  0  0  0  0  0
   35.6750   35.4860   18.3380 C   0  0  0  0  0  0  0  0  0  0  0  0
   33.9720   35.1340   24.2250 C   0  0  0  0  0  0  0  0  0  0  0  0
   34.5080   34.9210   16.3590 F   0  0  0  0  0  0  0  0  0  0  0  0
   34.4710   35.1750   19.1860 C   0  0  0  0  0  0  0  0  0  0  0  0
   34.3870   40.0720   23.0160 N   0  0  0  0  0  0  0  0  0  0  0  0
   34.0690   33.9370   21.7630 O   0  0  0  0  0  0  0  0  0  0  0  0
   34.1390   35.8840   22.9490 N   0  0  0  0  0  0  0  0  0  0  0  0
   34.0730   37.9250   24.1850 N   0  0  0  0  0  0  0  0  0  0  0  0
   34.0910   40.0130   25.3570 N   0  0  0  0  0  0  0  0  0  0  0  0
   35.5590   38.7810   27.3670 H   0  0  0  0  0  0  0  0  0  0  0  0
   34.5440   37.5230   26.5500 H   0  0  0  0  0  0  0  0  0  0  0  0
   34.4810   37.0050   28.9460 H   0  0  0  0  0  0  0  0  0  0  0  0
   34.0770   38.7500   29.3710 H   0  0  0  0  0  0  0  0  0  0  0  0
   31.7120   39.4200   28.7580 H   0  0  0  0  0  0  0  0  0  0  0  0
   30.7290   38.0580   28.0030 H   0  0  0  0  0  0  0  0  0  0  0  0
   32.0260   38.2050   25.9100 H   0  0  0  0  0  0  0  0  0  0  0  0
   31.4910   39.8890   26.3100 H   0  0  0  0  0  0  0  0  0  0  0  0
   36.5590   35.7370   15.0030 H   0  0  0  0  0  0  0  0  0  0  0  0
   33.6900   40.4140   27.3570 H   0  0  0  0  0  0  0  0  0  0  0  0
   34.6990   37.8770   19.6130 H   0  0  0  0  0  0  0  0  0  0  0  0
   38.9120   36.6100   18.5440 H   0  0  0  0  0  0  0  0  0  0  0  0
   36.9970   35.9570   19.9860 H   0  0  0  0  0  0  0  0  0  0  0  0
   34.6850   40.0170   20.9480 H   0  0  0  0  0  0  0  0  0  0  0  0
   34.8240   35.3650   24.9170 H   0  0  0  0  0  0  0  0  0  0  0  0
   33.0110   35.4310   24.7240 H   0  0  0  0  0  0  0  0  0  0  0  0
   33.9550   34.0300   24.0190 H   0  0  0  0  0  0  0  0  0  0  0  0
   34.0500   41.0530   25.2870 H   0  0  0  0  0  0  0  0  0  0  0  0
   34.4480   34.0710   19.3880 H   0  0  0  0  0  0  0  0  0  0  0  0
   33.5310   35.4390   18.6240 H   0  0  0  0  0  0  0  0  0  0  0  0
   37.8190   36.2340   16.7100 C   0  0  0  0  0  0  0  0  0  0  0  0
   38.8060   36.6860   15.9400 F   0  0  0  0  0  0  0  0  0  0  0  0
  1  2  1  0  0  0  0
  1 10  1  0  0  0  0
  1 27  1  0  0  0  0
  1 28  1  0  0  0  0
  2  6  1  0  0  0  0
  2 29  1  0  0  0  0
  2 30  1  0  0  0  0
  3  4  1  0  0  0  0
  3  6  1  0  0  0  0
  3 31  1  0  0  0  0
  3 32  1  0  0  0  0
  4 10  1  0  0  0  0
  4 33  1  0  0  0  0
  4 34  1  0  0  0  0
  5  8  2  0  0  0  0
  5 35  1  0  0  0  0
  5 47  1  0  0  0  0
  7 17  1  0  0  0  0
  7 23  2  0  0  0  0
  7 24  1  0  0  0  0
  8 18  1  0  0  0  0
  8 20  1  0  0  0  0
  9 22  2  0  0  0  0
  9 25  1  0  0  0  0
  9 26  1  0  0  0  0
 10 26  1  0  0  0  0
 10 36  1  0  0  0  0
 11 12  1  0  0  0  0
 11 15  1  0  0  0  0
 11 16  2  0  0  0  0
 12 17  2  0  0  0  0
 12 37  1  0  0  0  0
 13 14  1  0  0  0  0
 13 38  1  0  0  0  0
 13 47  2  0  0  0  0
 14 18  2  0  0  0  0
 14 39  1  0  0  0  0
 15 24  1  0  0  0  0
 15 25  2  0  0  0  0
 16 22  1  0  0  0  0
 16 40  1  0  0  0  0
 17 21  1  0  0  0  0
 18 21  1  0  0  0  0
 19 24  1  0  0  0  0
 19 41  1  0  0  0  0
 19 42  1  0  0  0  0
 19 43  1  0  0  0  0
 21 45  1  0  0  0  0
 21 46  1  0  0  0  0
 26 44  1  0  0  0  0
 47 48  1  0  0  0  0
M  END
$$$$
