50
                    3D
 Schrodinger Suite 2022-3.
 44 46  0  0  1  0  0  0  0  0999 V2000
    3.6460  -48.5490    7.4040 O   0  0  0  0  0  0  0  0  0  0  0  0
    3.2840  -49.5930    6.8470 C   0  0  0  0  0  0  0  0  0  0  0  0
    4.0110  -50.4770    6.3560 O   0  5  0  0  0  0  0  0  0  0  0  0
    1.7680  -49.8520    6.7390 C   0  0  0  0  0  0  0  0  0  0  0  0
   -0.1380  -51.0980    6.9160 C   0  0  0  0  0  0  0  0  0  0  0  0
   -1.1000  -52.0970    7.1630 C   0  0  0  0  0  0  0  0  0  0  0  0
   -2.4130  -51.8340    6.8120 C   0  0  0  0  0  0  0  0  0  0  0  0
   -2.7840  -50.6000    6.2240 C   0  0  0  0  0  0  0  0  0  0  0  0
   -1.8240  -49.6300    5.9920 C   0  0  0  0  0  0  0  0  0  0  0  0
   -0.4750  -49.8230    6.3230 C   0  0  0  0  0  0  0  0  0  0  0  0
    0.7450  -49.0530    6.2350 C   0  0  0  0  0  0  0  0  0  0  0  0
    0.8790  -47.6660    5.7100 C   0  0  0  0  0  0  0  0  0  0  0  0
    0.7600  -46.5880    6.8030 C   0  0  0  0  0  0  0  0  0  0  0  0
   -0.5910  -46.5200    7.5120 C   0  0  0  0  0  0  0  0  0  0  0  0
   -1.4680  -45.7980    6.5690 O   0  0  0  0  0  0  0  0  0  0  0  0
   -2.7580  -45.5650    6.9300 C   0  0  0  0  0  0  0  0  0  0  0  0
   -3.3440  -45.9540    8.1470 C   0  0  0  0  0  0  0  0  0  0  0  0
   -4.6780  -45.6140    8.4060 C   0  0  0  0  0  0  0  0  0  0  0  0
   -5.3290  -46.0130    9.6890 C   0  0  0  0  0  0  0  0  0  0  0  0
   -5.3950  -44.8970    7.4380 C   0  0  0  0  0  0  0  0  0  0  0  0
   -7.0530  -44.5120    7.7420 Cl  0  0  0  0  0  0  0  0  0  0  0  0
   -4.8270  -44.5130    6.2070 C   0  0  0  0  0  0  0  0  0  0  0  0
   -5.6460  -43.8200    5.1690 C   0  0  0  0  0  0  0  0  0  0  0  0
   -3.4980  -44.8520    5.9600 C   0  0  0  0  0  0  0  0  0  0  0  0
   -0.8230  -53.0490    7.6190 H   0  0  0  0  0  0  0  0  0  0  0  0
   -3.1860  -52.5840    6.9880 H   0  0  0  0  0  0  0  0  0  0  0  0
   -3.8300  -50.4300    5.9630 H   0  0  0  0  0  0  0  0  0  0  0  0
   -2.3100  -48.1360    5.2760 Cl  0  0  0  0  0  0  0  0  0  0  0  0
    0.1060  -47.4630    4.9300 H   0  0  0  0  0  0  0  0  0  0  0  0
    1.8830  -47.5460    5.2260 H   0  0  0  0  0  0  0  0  0  0  0  0
    0.9440  -45.5910    6.3360 H   0  0  0  0  0  0  0  0  0  0  0  0
    1.5350  -46.7930    7.5820 H   0  0  0  0  0  0  0  0  0  0  0  0
   -0.5400  -45.8940    8.4290 H   0  0  0  0  0  0  0  0  0  0  0  0
   -1.0400  -47.5180    7.6930 H   0  0  0  0  0  0  0  0  0  0  0  0
   -2.7980  -46.5310    8.8880 H   0  0  0  0  0  0  0  0  0  0  0  0
   -5.8100  -45.1330   10.1800 H   0  0  0  0  0  0  0  0  0  0  0  0
   -6.1290  -46.7680    9.4870 H   0  0  0  0  0  0  0  0  0  0  0  0
   -4.5980  -46.4660   10.3960 H   0  0  0  0  0  0  0  0  0  0  0  0
   -5.0140  -43.4880    4.3120 H   0  0  0  0  0  0  0  0  0  0  0  0
   -6.4260  -44.5250    4.7850 H   0  0  0  0  0  0  0  0  0  0  0  0
   -6.1660  -42.9300    5.5910 H   0  0  0  0  0  0  0  0  0  0  0  0
   -3.0380  -44.5790    5.0170 H   0  0  0  0  0  0  0  0  0  0  0  0
    1.2390  -51.0860    7.1620 N   0  0  0  0  0  0  0  0  0  0  0  0
    1.7420  -51.8740    7.5580 H   0  0  0  0  0  0  0  0  0  0  0  0
  1  2  2  0  0  0  0
  2  3  1  0  0  0  0
  2  4  1  0  0  0  0
  4 11  2  0  0  0  0
  4 43  1  0  0  0  0
  5  6  1  0  0  0  0
  5 10  2  0  0  0  0
  5 43  1  0  0  0  0
  6  7  2  0  0  0  0
  6 25  1  0  0  0  0
  7  8  1  0  0  0  0
  7 26  1  0  0  0  0
  8  9  2  0  0  0  0
  8 27  1  0  0  0  0
  9 10  1  0  0  0  0
  9 28  1  0  0  0  0
 10 11  1  0  0  0  0
 11 12  1  0  0  0  0
 12 29  1  0  0  0  0
 12 30  1  0  0  0  0
 12 13  1  0  0  0  0
 13 14  1  0  0  0  0
 13 31  1  0  0  0  0
 13 32  1  0  0  0  0
 14 15  1  0  0  0  0
 14 33  1  0  0  0  0
 14 34  1  0  0  0  0
 15 16  1  0  0  0  0
 16 17  1  0  0  0  0
 16 24  2  0  0  0  0
 17 18  2  0  0  0  0
 17 35  1  0  0  0  0
 18 19  1  0  0  0  0
 18 20  1  0  0  0  0
 19 36  1  0  0  0  0
 19 37  1  0  0  0  0
 19 38  1  0  0  0  0
 20 21  1  0  0  0  0
 20 22  2  0  0  0  0
 22 23  1  0  0  0  0
 22 24  1  0  0  0  0
 23 39  1  0  0  0  0
 23 40  1  0  0  0  0
 23 41  1  0  0  0  0
 24 42  1  0  0  0  0
 43 44  1  0  0  0  0
M  CHG  1   3  -1
M  END
$$$$
