ejm_42
 OpenBabel02232411173D
Structure written by MMmdl.
 35 36  0  0  0  0  0  0  0  0999 V2000
   -1.5530   21.5300  -27.6030 C   0  0  0  0  0  0  0  0  0  0  0  0
   -2.8230   21.0030  -27.8550 C   0  0  0  0  0  0  0  0  0  0  0  0
   -3.6070   21.5540  -28.8690 C   0  0  0  0  0  0  0  0  0  0  0  0
   -3.1550   22.6290  -29.6490 C   0  0  0  0  0  0  0  0  0  0  0  0
   -1.8870   23.1480  -29.3590 C   0  0  0  0  0  0  0  0  0  0  0  0
   -1.0810   22.6100  -28.3540 C   0  0  0  0  0  0  0  0  0  0  0  0
   -1.2800   24.4930  -30.2320 Cl  0  0  0  0  0  0  0  0  0  0  0  0
   -4.0220   23.1220  -30.7720 C   0  0  0  0  0  0  0  0  0  0  0  0
   -4.4190   22.3940  -31.6550 O   0  0  0  0  0  0  0  0  0  0  0  0
   -4.3520   24.4890  -30.6700 N   0  0  0  0  0  0  0  0  0  0  0  0
   -5.2020   25.2270  -31.5400 C   0  0  0  0  0  0  0  0  0  0  0  0
   -5.8830   24.6640  -32.6310 C   0  0  0  0  0  0  0  0  0  0  0  0
   -6.7350   25.4890  -33.3800 C   0  0  0  0  0  0  0  0  0  0  0  0
   -6.9240   26.8070  -33.1180 N   0  0  0  0  0  0  0  0  0  0  0  0
   -6.2330   27.3510  -32.0530 C   0  0  0  0  0  0  0  0  0  0  0  0
   -5.3680   26.5970  -31.2470 C   0  0  0  0  0  0  0  0  0  0  0  0
   -6.4810   28.7360  -31.8360 N   0  0  0  0  0  0  0  0  0  0  0  0
   -5.7150   29.6030  -31.0110 C   0  0  0  0  0  0  0  0  0  0  0  0
   -4.8030   29.1720  -30.3310 O   0  0  0  0  0  0  0  0  0  0  0  0
   -6.1370   31.0560  -31.0470 C   0  0  0  0  0  0  0  0  0  0  0  0
   -5.1610   20.8980  -29.1750 Cl  0  0  0  0  0  0  0  0  0  0  0  0
   -6.8620   31.2780  -31.8730 H   0  0  0  0  0  0  0  0  0  0  0  0
   -0.9270   21.1010  -26.8130 H   0  0  0  0  0  0  0  0  0  0  0  0
   -3.1850   20.1740  -27.2450 H   0  0  0  0  0  0  0  0  0  0  0  0
   -0.0930   23.0260  -28.1370 H   0  0  0  0  0  0  0  0  0  0  0  0
   -3.9490   25.0210  -29.8760 H   0  0  0  0  0  0  0  0  0  0  0  0
   -5.7810   23.6080  -32.8950 H   0  0  0  0  0  0  0  0  0  0  0  0
   -7.3010   25.0790  -34.2330 H   0  0  0  0  0  0  0  0  0  0  0  0
   -4.8320   27.0620  -30.4130 H   0  0  0  0  0  0  0  0  0  0  0  0
   -7.3570   29.1100  -32.2640 H   0  0  0  0  0  0  0  0  0  0  0  0
   -4.9120   31.9600  -31.1970 C   0  0  0  0  0  0  0  0  0  0  0  0
   -6.6560   31.3140  -30.0890 H   0  0  0  0  0  0  0  0  0  0  0  0
   -5.2580   33.0200  -31.2760 H   0  0  0  0  0  0  0  0  0  0  0  0
   -4.2440   31.8730  -30.3080 H   0  0  0  0  0  0  0  0  0  0  0  0
   -4.3370   31.7030  -32.1110 H   0  0  0  0  0  0  0  0  0  0  0  0
  1  2  2  0  0  0  0
  1  6  1  0  0  0  0
  1 23  1  0  0  0  0
  2  3  1  0  0  0  0
  2 24  1  0  0  0  0
  3  4  2  0  0  0  0
  3 21  1  0  0  0  0
  4  5  1  0  0  0  0
  4  8  1  0  0  0  0
  5  6  2  0  0  0  0
  5  7  1  0  0  0  0
  6 25  1  0  0  0  0
  8  9  2  0  0  0  0
  8 10  1  0  0  0  0
 10 11  1  0  0  0  0
 10 26  1  0  0  0  0
 11 12  2  0  0  0  0
 11 16  1  0  0  0  0
 12 13  1  0  0  0  0
 12 27  1  0  0  0  0
 13 14  2  0  0  0  0
 13 28  1  0  0  0  0
 14 15  1  0  0  0  0
 15 16  2  0  0  0  0
 15 17  1  0  0  0  0
 16 29  1  0  0  0  0
 17 18  1  0  0  0  0
 17 30  1  0  0  0  0
 18 19  2  0  0  0  0
 18 20  1  0  0  0  0
 20 22  1  0  0  0  0
 20 31  1  0  0  0  0
 20 32  1  0  0  0  0
 31 33  1  0  0  0  0
 31 34  1  0  0  0  0
 31 35  1  0  0  0  0
M  END
$$$$
