p38a_2u
 OpenBabel02232411163D
Structure written by MMmdl.
 64 68  0  0  0  0  0  0  0  0999 V2000
   38.2170   36.5120   17.2270 C   0  0  0  0  0  0  0  0  0  0  0  0
   34.5040   35.2240   21.3780 C   0  0  0  0  0  0  0  0  0  0  0  0
   37.4350   36.0920   18.2990 C   0  0  0  0  0  0  0  0  0  0  0  0
   34.0810   39.3690   23.8360 C   0  0  0  0  0  0  0  0  0  0  0  0
   34.6260   38.1020   21.4480 C   0  0  0  0  0  0  0  0  0  0  0  0
   34.9970   37.4140   20.2420 C   0  0  0  0  0  0  0  0  0  0  0  0
   37.5610   36.6600   15.9970 C   0  0  0  0  0  0  0  0  0  0  0  0
   36.2040   36.3850   15.8100 C   0  0  0  0  0  0  0  0  0  0  0  0
   35.4420   35.9580   16.9030 C   0  0  0  0  0  0  0  0  0  0  0  0
   34.2760   37.3600   22.6140 C   0  0  0  0  0  0  0  0  0  0  0  0
   34.6100   39.5190   21.5580 C   0  0  0  0  0  0  0  0  0  0  0  0
   34.9760   36.0620   20.2380 C   0  0  0  0  0  0  0  0  0  0  0  0
   36.0620   35.8040   18.1460 C   0  0  0  0  0  0  0  0  0  0  0  0
   37.9810   35.9590   19.5010 F   0  0  0  0  0  0  0  0  0  0  0  0
   35.3370   35.2150   19.1910 O   0  0  0  0  0  0  0  0  0  0  0  0
   34.3520   40.1650   22.7050 N   0  0  0  0  0  0  0  0  0  0  0  0
   34.3850   34.0190   21.3320 O   0  0  0  0  0  0  0  0  0  0  0  0
   34.1700   35.9540   22.5720 N   0  0  0  0  0  0  0  0  0  0  0  0
   34.0290   37.9880   23.8060 N   0  0  0  0  0  0  0  0  0  0  0  0
   33.7940   40.0050   25.0200 N   0  0  0  0  0  0  0  0  0  0  0  0
   39.2780   36.7500   17.3450 H   0  0  0  0  0  0  0  0  0  0  0  0
   35.2970   38.0080   19.3760 H   0  0  0  0  0  0  0  0  0  0  0  0
   35.7280   36.5120   14.8340 H   0  0  0  0  0  0  0  0  0  0  0  0
   34.3720   35.7610   16.7790 H   0  0  0  0  0  0  0  0  0  0  0  0
   34.8110   40.1350   20.6660 H   0  0  0  0  0  0  0  0  0  0  0  0
   33.9190   41.0310   25.1020 H   0  0  0  0  0  0  0  0  0  0  0  0
   38.2620   37.1210   14.9630 F   0  0  0  0  0  0  0  0  0  0  0  0
   32.6020   39.3560   28.5940 C   0  0  0  0  0  0  0  0  0  0  0  0
   32.6890   40.0430   27.2260 C   0  0  0  0  0  0  0  0  0  0  0  0
   33.6520   39.2600   26.3100 C   0  0  0  0  0  0  0  0  0  0  0  0
   35.0250   39.0940   26.9970 C   0  0  0  0  0  0  0  0  0  0  0  0
   34.8380   38.4540   28.3780 C   0  0  0  0  0  0  0  0  0  0  0  0
   33.9070   39.1970   29.1970 O   0  0  0  0  0  0  0  0  0  0  0  0
   32.1190   38.3560   28.5080 H   0  0  0  0  0  0  0  0  0  0  0  0
   32.0800   40.0060   29.3340 H   0  0  0  0  0  0  0  0  0  0  0  0
   33.0550   41.0880   27.3610 H   0  0  0  0  0  0  0  0  0  0  0  0
   31.6770   40.0850   26.7580 H   0  0  0  0  0  0  0  0  0  0  0  0
   33.2150   38.2440   26.0940 H   0  0  0  0  0  0  0  0  0  0  0  0
   35.6820   38.4390   26.3770 H   0  0  0  0  0  0  0  0  0  0  0  0
   35.5180   40.0900   27.1020 H   0  0  0  0  0  0  0  0  0  0  0  0
   34.4770   37.4040   28.2820 H   0  0  0  0  0  0  0  0  0  0  0  0
   35.7760   38.5120   28.9770 H   0  0  0  0  0  0  0  0  0  0  0  0
   34.3310   33.2210   25.2730 C   0  0  0  0  0  0  0  0  0  0  0  0
   34.8490   34.4320   24.4580 C   0  0  0  0  0  0  0  0  0  0  0  0
   33.6980   35.2250   23.8140 C   0  0  0  0  0  0  0  0  0  0  0  0
   32.4990   34.3140   23.5010 C   0  0  0  0  0  0  0  0  0  0  0  0
   31.9140   33.7810   24.8240 C   0  0  0  0  0  0  0  0  0  0  0  0
   35.0600   33.0700   26.1130 H   0  0  0  0  0  0  0  0  0  0  0  0
   34.3340   32.3150   24.6130 H   0  0  0  0  0  0  0  0  0  0  0  0
   35.5580   34.0410   23.6940 H   0  0  0  0  0  0  0  0  0  0  0  0
   35.4110   35.1150   25.1420 H   0  0  0  0  0  0  0  0  0  0  0  0
   33.3520   36.0020   24.5610 H   0  0  0  0  0  0  0  0  0  0  0  0
   31.7010   34.8870   22.9700 H   0  0  0  0  0  0  0  0  0  0  0  0
   32.8160   33.4640   22.8490 H   0  0  0  0  0  0  0  0  0  0  0  0
   31.2750   34.5850   25.2850 H   0  0  0  0  0  0  0  0  0  0  0  0
   31.2850   32.8820   24.5830 H   0  0  0  0  0  0  0  0  0  0  0  0
   32.9700   33.4510   25.8350 N   0  0  0  0  0  0  0  0  0  0  0  0
   32.4420   32.6060   27.2400 S   0  0  0  0  0  0  0  0  0  0  0  0
   31.3010   31.7430   26.8650 O   0  0  0  0  0  0  0  0  0  0  0  0
   32.0480   33.6030   28.2530 O   0  0  0  0  0  0  0  0  0  0  0  0
   33.7670   31.6500   27.8210 C   0  0  0  0  0  0  0  0  0  0  0  0
   34.6250   32.2730   28.1900 H   0  0  0  0  0  0  0  0  0  0  0  0
   33.4530   31.0180   28.6990 H   0  0  0  0  0  0  0  0  0  0  0  0
   34.1600   30.9300   27.0570 H   0  0  0  0  0  0  0  0  0  0  0  0
  1  3  2  0  0  0  0
  1  7  1  0  0  0  0
  1 21  1  0  0  0  0
  2 12  1  0  0  0  0
  2 17  2  0  0  0  0
  2 18  1  0  0  0  0
  3 13  1  0  0  0  0
  3 14  1  0  0  0  0
  4 16  2  0  0  0  0
  4 19  1  0  0  0  0
  4 20  1  0  0  0  0
  5  6  1  0  0  0  0
  5 10  1  0  0  0  0
  5 11  2  0  0  0  0
  6 12  2  0  0  0  0
  6 22  1  0  0  0  0
  7  8  2  0  0  0  0
  7 27  1  0  0  0  0
  8  9  1  0  0  0  0
  8 23  1  0  0  0  0
  9 13  2  0  0  0  0
  9 24  1  0  0  0  0
 10 18  1  0  0  0  0
 10 19  2  0  0  0  0
 11 16  1  0  0  0  0
 11 25  1  0  0  0  0
 12 15  1  0  0  0  0
 13 15  1  0  0  0  0
 18 45  1  0  0  0  0
 20 26  1  0  0  0  0
 20 30  1  0  0  0  0
 28 29  1  0  0  0  0
 28 33  1  0  0  0  0
 28 34  1  0  0  0  0
 28 35  1  0  0  0  0
 29 30  1  0  0  0  0
 29 36  1  0  0  0  0
 29 37  1  0  0  0  0
 30 31  1  0  0  0  0
 30 38  1  0  0  0  0
 31 32  1  0  0  0  0
 31 39  1  0  0  0  0
 31 40  1  0  0  0  0
 32 33  1  0  0  0  0
 32 41  1  0  0  0  0
 32 42  1  0  0  0  0
 43 44  1  0  0  0  0
 43 48  1  0  0  0  0
 43 49  1  0  0  0  0
 43 57  1  0  0  0  0
 44 45  1  0  0  0  0
 44 50  1  0  0  0  0
 44 51  1  0  0  0  0
 45 46  1  0  0  0  0
 45 52  1  0  0  0  0
 46 47  1  0  0  0  0
 46 53  1  0  0  0  0
 46 54  1  0  0  0  0
 47 55  1  0  0  0  0
 47 56  1  0  0  0  0
 47 57  1  0  0  0  0
 57 58  1  0  0  0  0
 58 59  2  0  0  0  0
 58 60  2  0  0  0  0
 58 61  1  0  0  0  0
 61 62  1  0  0  0  0
 61 63  1  0  0  0  0
 61 64  1  0  0  0  0
M  END
$$$$
