18637-1
 OpenBabel02232411163D
Structure written by MMmdl.
 53 54  0  0  0  0  0  0  0  0999 V2000
   23.8150   12.6680   30.3490 C   0  0  0  0  0  0  0  0  0  0  0  0
   23.3790   11.2190   30.4620 C   0  0  0  0  0  0  0  0  0  0  0  0
   22.1290   11.3060   31.2580 O   0  0  0  0  0  0  0  0  0  0  0  0
   21.5000   10.1600   31.5960 C   0  0  0  0  0  0  0  0  0  0  0  0
   21.9800    8.9770   31.1480 N   0  0  0  0  0  0  0  0  0  0  0  0
   21.2500    7.8350   31.4530 C   0  0  0  0  0  0  0  0  0  0  0  0
   20.0970    7.8680   32.2330 C   0  0  0  0  0  0  0  0  0  0  0  0
   19.6130    9.1120   32.7140 C   0  0  0  0  0  0  0  0  0  0  0  0
   18.4740    9.1470   33.4790 N   0  0  0  0  0  0  0  0  0  0  0  0
   20.3160   10.3130   32.3780 C   0  0  0  0  0  0  0  0  0  0  0  0
   19.8900   11.6110   32.7310 C   0  0  0  0  0  0  0  0  0  0  0  0
   19.5860   12.7030   32.9760 N   0  0  0  0  0  0  0  0  0  0  0  0
   21.8080    6.6800   30.8670 N   0  0  0  0  0  0  0  0  0  0  0  0
   21.2050    5.4010   30.7760 C   0  0  0  0  0  0  0  0  0  0  0  0
   20.1280    5.1510   31.2750 O   0  0  0  0  0  0  0  0  0  0  0  0
   22.0050    4.4160   29.9340 C   0  0  0  0  0  0  0  0  0  0  0  0
   23.3190    4.0550   30.5580 C   0  0  0  0  0  0  0  0  0  0  0  0
   24.4640    4.8600   30.3640 C   0  0  0  0  0  0  0  0  0  0  0  0
   24.2320    5.9420   29.5320 O   0  0  0  0  0  0  0  0  0  0  0  0
   25.2580    6.9650   29.4180 C   0  0  0  0  0  0  0  0  0  0  0  0
   25.6990    4.5610   30.9540 C   0  0  0  0  0  0  0  0  0  0  0  0
   25.8200    3.4170   31.7480 C   0  0  0  0  0  0  0  0  0  0  0  0
   24.6690    2.5920   31.9380 C   0  0  0  0  0  0  0  0  0  0  0  0
   23.4480    2.9040   31.3470 C   0  0  0  0  0  0  0  0  0  0  0  0
   24.8970    1.5210   32.7880 O   0  0  0  0  0  0  0  0  0  0  0  0
   23.9870    0.3950   32.6990 C   0  0  0  0  0  0  0  0  0  0  0  0
   27.0360    3.0640   32.4030 N   0  0  0  0  0  0  0  0  0  0  0  0
   28.3380    3.3150   31.9020 C   0  0  0  0  0  0  0  0  0  0  0  0
   28.5000    3.8750   30.8300 O   0  0  0  0  0  0  0  0  0  0  0  0
   29.4380    2.8520   32.8050 C   0  0  0  0  0  0  0  0  0  0  0  0
   24.0300   13.1080   31.3490 H   0  0  0  0  0  0  0  0  0  0  0  0
   23.0310   13.2840   29.8480 H   0  0  0  0  0  0  0  0  0  0  0  0
   24.7440   12.7160   29.7280 H   0  0  0  0  0  0  0  0  0  0  0  0
   23.1210   10.7750   29.4740 H   0  0  0  0  0  0  0  0  0  0  0  0
   24.1090   10.5960   31.0250 H   0  0  0  0  0  0  0  0  0  0  0  0
   19.5460    6.9530   32.4640 H   0  0  0  0  0  0  0  0  0  0  0  0
   18.0690   10.0310   33.7900 H   0  0  0  0  0  0  0  0  0  0  0  0
   17.9690    8.2750   33.7280 H   0  0  0  0  0  0  0  0  0  0  0  0
   22.7320    6.8210   30.3890 H   0  0  0  0  0  0  0  0  0  0  0  0
   21.3890    3.4910   29.7880 H   0  0  0  0  0  0  0  0  0  0  0  0
   22.1890    4.8830   28.9280 H   0  0  0  0  0  0  0  0  0  0  0  0
   25.5160    7.3680   30.4200 H   0  0  0  0  0  0  0  0  0  0  0  0
   26.1390    6.5520   28.8850 H   0  0  0  0  0  0  0  0  0  0  0  0
   24.7320    7.7310   28.8010 H   0  0  0  0  0  0  0  0  0  0  0  0
   26.5630    5.2130   30.7970 H   0  0  0  0  0  0  0  0  0  0  0  0
   22.5840    2.2510   31.4980 H   0  0  0  0  0  0  0  0  0  0  0  0
   24.4990   -0.3540   33.3500 H   0  0  0  0  0  0  0  0  0  0  0  0
   22.9960    0.6760   33.1160 H   0  0  0  0  0  0  0  0  0  0  0  0
   23.9200    0.0360   31.6500 H   0  0  0  0  0  0  0  0  0  0  0  0
   26.9450    2.4400   33.2220 H   0  0  0  0  0  0  0  0  0  0  0  0
   29.2940    1.7990   33.1560 H   0  0  0  0  0  0  0  0  0  0  0  0
   30.4290    2.8960   32.2820 H   0  0  0  0  0  0  0  0  0  0  0  0
   29.5060    3.5050   33.7140 H   0  0  0  0  0  0  0  0  0  0  0  0
  1  2  1  0  0  0  0
  1 31  1  0  0  0  0
  1 32  1  0  0  0  0
  1 33  1  0  0  0  0
  2  3  1  0  0  0  0
  2 34  1  0  0  0  0
  2 35  1  0  0  0  0
  3  4  1  0  0  0  0
  4 10  2  0  0  0  0
  4  5  1  0  0  0  0
  5  6  2  0  0  0  0
  6  7  1  0  0  0  0
  6 13  1  0  0  0  0
  7  8  2  0  0  0  0
  7 36  1  0  0  0  0
  8  9  1  0  0  0  0
  8 10  1  0  0  0  0
  9 37  1  0  0  0  0
  9 38  1  0  0  0  0
 10 11  1  0  0  0  0
 11 12  3  0  0  0  0
 13 14  1  0  0  0  0
 13 39  1  0  0  0  0
 14 15  2  0  0  0  0
 14 16  1  0  0  0  0
 16 17  1  0  0  0  0
 16 40  1  0  0  0  0
 16 41  1  0  0  0  0
 17 24  2  0  0  0  0
 17 18  1  0  0  0  0
 18 19  1  0  0  0  0
 18 21  2  0  0  0  0
 19 20  1  0  0  0  0
 20 42  1  0  0  0  0
 20 43  1  0  0  0  0
 20 44  1  0  0  0  0
 21 22  1  0  0  0  0
 21 45  1  0  0  0  0
 22 23  2  0  0  0  0
 22 27  1  0  0  0  0
 23 24  1  0  0  0  0
 23 25  1  0  0  0  0
 24 46  1  0  0  0  0
 25 26  1  0  0  0  0
 26 47  1  0  0  0  0
 26 48  1  0  0  0  0
 26 49  1  0  0  0  0
 27 28  1  0  0  0  0
 27 50  1  0  0  0  0
 28 29  2  0  0  0  0
 28 30  1  0  0  0  0
 30 51  1  0  0  0  0
 30 52  1  0  0  0  0
 30 53  1  0  0  0  0
M  END
$$$$
