23471
                    3D
 Schrodinger Suite 2022-3.
 35 36  0  0  1  0  0  0  0  0999 V2000
   43.6770   14.1760   16.6020 S   0  0  0  0  0  0  0  0  0  0  0  0
   43.3470   15.5370   15.5580 C   0  0  0  0  0  0  0  0  0  0  0  0
   42.4280   15.1610   14.6100 C   0  0  0  0  0  0  0  0  0  0  0  0
   41.9990   13.7890   14.7400 C   0  0  0  0  0  0  0  0  0  0  0  0
   42.5440   13.1150   15.8040 C   0  0  0  0  0  0  0  0  0  0  0  0
   43.9720   16.9040   15.8510 C   0  0  0  0  0  0  0  0  0  0  0  0
   44.1110   17.1620   17.0650 O   0  0  0  0  0  0  0  0  0  0  0  0
   44.2840   17.6500   14.9210 O   0  5  0  0  0  0  0  0  0  0  0  0
   42.2450   11.7690   16.2450 C   0  0  0  0  0  0  0  0  0  0  0  0
   40.9260   11.2960   16.1070 C   0  0  0  0  0  0  0  0  0  0  0  0
   40.6390    9.9360   16.3050 C   0  0  0  0  0  0  0  0  0  0  0  0
   41.6110    9.0600   16.7980 C   0  0  0  0  0  0  0  0  0  0  0  0
   42.8910    9.5700   17.0550 C   0  0  0  0  0  0  0  0  0  0  0  0
   43.2220   10.8920   16.7610 C   0  0  0  0  0  0  0  0  0  0  0  0
   40.8180   12.9760   13.4850 Br  0  0  0  0  0  0  0  0  0  0  0  0
   42.0510   15.9980   13.6110 O   0  0  0  0  0  0  0  0  0  0  0  0
   40.6120   16.2610   13.5410 C   0  0  0  0  0  0  0  0  0  0  0  0
   40.6100   17.6890   12.9100 C   0  0  0  0  0  0  0  0  0  0  0  0
   39.4860   18.1040   12.5470 O   0  5  0  0  0  0  0  0  0  0  0  0
   41.6940   18.2740   12.8220 O   0  0  0  0  0  0  0  0  0  0  0  0
   39.3030    9.5220   15.9310 N   0  0  0  0  0  0  0  0  0  0  0  0
   40.1100   11.9730   15.8410 H   0  0  0  0  0  0  0  0  0  0  0  0
   41.4020    8.0070   16.9750 H   0  0  0  0  0  0  0  0  0  0  0  0
   43.6450    8.9010   17.4750 H   0  0  0  0  0  0  0  0  0  0  0  0
   44.2460   11.2290   16.9260 H   0  0  0  0  0  0  0  0  0  0  0  0
   40.1400   16.2390   14.5440 H   0  0  0  0  0  0  0  0  0  0  0  0
   40.1490   15.5150   12.8670 H   0  0  0  0  0  0  0  0  0  0  0  0
   38.8530   10.0750   15.1620 H   0  0  0  0  0  0  0  0  0  0  0  0
   38.7430    8.2960   16.2550 C   0  0  0  0  0  0  0  0  0  0  0  0
   39.0420    7.5130   17.1340 O   0  0  0  0  0  0  0  0  0  0  0  0
   37.6400    8.1110   15.4130 O   0  0  0  0  0  0  0  0  0  0  0  0
   36.8460    6.9180   15.6120 C   0  0  0  0  0  0  0  0  0  0  0  0
   36.0500    7.0380   14.8400 H   0  0  0  0  0  0  0  0  0  0  0  0
   36.4190    6.9050   16.6370 H   0  0  0  0  0  0  0  0  0  0  0  0
   37.4640    6.0160   15.4150 H   0  0  0  0  0  0  0  0  0  0  0  0
  1  2  1  0  0  0  0
  1  5  1  0  0  0  0
  2  3  2  0  0  0  0
  2  6  1  0  0  0  0
  3  4  1  0  0  0  0
  3 16  1  0  0  0  0
  4  5  2  0  0  0  0
  4 15  1  0  0  0  0
  5  9  1  0  0  0  0
  6  7  2  0  0  0  0
  6  8  1  0  0  0  0
  9 10  1  0  0  0  0
  9 14  2  0  0  0  0
 10 11  2  0  0  0  0
 10 22  1  0  0  0  0
 11 12  1  0  0  0  0
 11 21  1  0  0  0  0
 12 13  2  0  0  0  0
 12 23  1  0  0  0  0
 13 14  1  0  0  0  0
 13 24  1  0  0  0  0
 14 25  1  0  0  0  0
 16 17  1  0  0  0  0
 17 18  1  0  0  0  0
 17 26  1  0  0  0  0
 17 27  1  0  0  0  0
 18 19  1  0  0  0  0
 18 20  2  0  0  0  0
 21 28  1  0  0  0  0
 21 29  1  0  0  0  0
 29 30  2  0  0  0  0
 29 31  1  0  0  0  0
 31 32  1  0  0  0  0
 32 33  1  0  0  0  0
 32 34  1  0  0  0  0
 32 35  1  0  0  0  0
M  CHG  2   8  -1  19  -1
M  END
$$$$
