p38a_2y
 OpenBabel02232411163D
Structure written by MMmdl.
 45 47  0  0  0  0  0  0  0  0999 V2000
   36.3550   36.0140   15.8450 C   0  0  0  0  0  0  0  0  0  0  0  0
   34.3600   35.0240   21.2450 C   0  0  0  0  0  0  0  0  0  0  0  0
   35.7250   35.5340   16.9890 C   0  0  0  0  0  0  0  0  0  0  0  0
   33.5440   39.1740   23.6030 C   0  0  0  0  0  0  0  0  0  0  0  0
   32.2970   39.2200   25.7880 C   0  0  0  0  0  0  0  0  0  0  0  0
   34.6300   37.8860   21.4200 C   0  0  0  0  0  0  0  0  0  0  0  0
   35.2330   37.1870   20.3160 C   0  0  0  0  0  0  0  0  0  0  0  0
   37.6460   36.5330   16.0140 C   0  0  0  0  0  0  0  0  0  0  0  0
   38.3120   36.5530   17.2420 C   0  0  0  0  0  0  0  0  0  0  0  0
   37.6430   36.0980   18.3840 C   0  0  0  0  0  0  0  0  0  0  0  0
   33.9250   37.1660   22.4290 C   0  0  0  0  0  0  0  0  0  0  0  0
   34.7260   39.2930   21.5810 C   0  0  0  0  0  0  0  0  0  0  0  0
   35.1210   35.8410   20.2600 C   0  0  0  0  0  0  0  0  0  0  0  0
   36.3490   35.5870   18.2520 C   0  0  0  0  0  0  0  0  0  0  0  0
   33.0050   35.0430   23.3720 C   0  0  0  0  0  0  0  0  0  0  0  0
   34.5150   34.9970   16.9150 F   0  0  0  0  0  0  0  0  0  0  0  0
   35.6580   34.9770   19.3070 O   0  0  0  0  0  0  0  0  0  0  0  0
   34.2240   39.9440   22.6400 N   0  0  0  0  0  0  0  0  0  0  0  0
   34.1990   33.8250   21.1850 O   0  0  0  0  0  0  0  0  0  0  0  0
   33.7870   35.7730   22.3340 N   0  0  0  0  0  0  0  0  0  0  0  0
   33.3850   37.8030   23.5210 N   0  0  0  0  0  0  0  0  0  0  0  0
   32.9540   39.8720   24.6360 N   0  0  0  0  0  0  0  0  0  0  0  0
   35.8640   36.0100   14.8680 H   0  0  0  0  0  0  0  0  0  0  0  0
   31.6430   38.3790   25.4290 H   0  0  0  0  0  0  0  0  0  0  0  0
   35.7680   37.7760   19.5670 H   0  0  0  0  0  0  0  0  0  0  0  0
   39.3290   36.9470   17.3210 H   0  0  0  0  0  0  0  0  0  0  0  0
   38.1290   36.1660   19.3610 H   0  0  0  0  0  0  0  0  0  0  0  0
   35.2360   39.8980   20.8140 H   0  0  0  0  0  0  0  0  0  0  0  0
   33.5710   35.0320   24.3400 H   0  0  0  0  0  0  0  0  0  0  0  0
   32.0150   35.5480   23.5370 H   0  0  0  0  0  0  0  0  0  0  0  0
   32.8200   33.9860   23.0440 H   0  0  0  0  0  0  0  0  0  0  0  0
   33.2760   40.8420   24.8330 H   0  0  0  0  0  0  0  0  0  0  0  0
   38.2500   37.0620   14.9530 F   0  0  0  0  0  0  0  0  0  0  0  0
   33.2670   38.6980   26.9000 C   0  0  0  0  0  0  0  0  0  0  0  0
   31.6280   40.0080   26.2410 H   0  0  0  0  0  0  0  0  0  0  0  0
   32.4330   38.2800   28.1200 C   0  0  0  0  0  0  0  0  0  0  0  0
   33.9710   37.5190   26.4570 O   0  0  0  0  0  0  0  0  0  0  0  0
   34.3460   39.7220   27.2640 C   0  0  0  0  0  0  0  0  0  0  0  0
   33.6550   37.2360   25.5680 H   0  0  0  0  0  0  0  0  0  0  0  0
   33.0690   37.7220   28.8460 H   0  0  0  0  0  0  0  0  0  0  0  0
   32.0190   39.1760   28.6360 H   0  0  0  0  0  0  0  0  0  0  0  0
   31.5880   37.6180   27.8240 H   0  0  0  0  0  0  0  0  0  0  0  0
   34.8830   39.4130   28.1890 H   0  0  0  0  0  0  0  0  0  0  0  0
   35.0920   39.8180   26.4450 H   0  0  0  0  0  0  0  0  0  0  0  0
   33.8840   40.7220   27.4450 H   0  0  0  0  0  0  0  0  0  0  0  0
  1  3  2  0  0  0  0
  1  8  1  0  0  0  0
  1 23  1  0  0  0  0
  2 13  1  0  0  0  0
  2 19  2  0  0  0  0
  2 20  1  0  0  0  0
  3 14  1  0  0  0  0
  3 16  1  0  0  0  0
  4 18  2  0  0  0  0
  4 21  1  0  0  0  0
  4 22  1  0  0  0  0
  5 22  1  0  0  0  0
  5 24  1  0  0  0  0
  5 34  1  0  0  0  0
  5 35  1  0  0  0  0
  6  7  1  0  0  0  0
  6 11  1  0  0  0  0
  6 12  2  0  0  0  0
  7 13  2  0  0  0  0
  7 25  1  0  0  0  0
  8  9  2  0  0  0  0
  8 33  1  0  0  0  0
  9 10  1  0  0  0  0
  9 26  1  0  0  0  0
 10 14  2  0  0  0  0
 10 27  1  0  0  0  0
 11 20  1  0  0  0  0
 11 21  2  0  0  0  0
 12 18  1  0  0  0  0
 12 28  1  0  0  0  0
 13 17  1  0  0  0  0
 14 17  1  0  0  0  0
 15 20  1  0  0  0  0
 15 29  1  0  0  0  0
 15 30  1  0  0  0  0
 15 31  1  0  0  0  0
 22 32  1  0  0  0  0
 34 36  1  0  0  0  0
 34 37  1  0  0  0  0
 34 38  1  0  0  0  0
 36 40  1  0  0  0  0
 36 41  1  0  0  0  0
 36 42  1  0  0  0  0
 37 39  1  0  0  0  0
 38 43  1  0  0  0  0
 38 44  1  0  0  0  0
 38 45  1  0  0  0  0
M  END
$$$$
