p38a_2bb
 OpenBabel02232411163D
Structure written by MMmdl.
 44 46  0  0  0  0  0  0  0  0999 V2000
   38.2180   36.4950   17.2350 C   0  0  0  0  0  0  0  0  0  0  0  0
   34.6560   35.2130   21.4400 C   0  0  0  0  0  0  0  0  0  0  0  0
   37.4310   36.0850   18.3070 C   0  0  0  0  0  0  0  0  0  0  0  0
   34.3450   39.3220   23.9680 C   0  0  0  0  0  0  0  0  0  0  0  0
   34.0050   39.2530   26.4610 C   0  0  0  0  0  0  0  0  0  0  0  0
   34.7320   38.0850   21.5330 C   0  0  0  0  0  0  0  0  0  0  0  0
   35.0220   37.4140   20.2940 C   0  0  0  0  0  0  0  0  0  0  0  0
   37.5650   36.6410   16.0020 C   0  0  0  0  0  0  0  0  0  0  0  0
   36.2080   36.3700   15.8140 C   0  0  0  0  0  0  0  0  0  0  0  0
   35.4400   35.9550   16.9070 C   0  0  0  0  0  0  0  0  0  0  0  0
   34.5360   37.3310   22.7300 C   0  0  0  0  0  0  0  0  0  0  0  0
   34.6360   39.4970   21.6440 C   0  0  0  0  0  0  0  0  0  0  0  0
   35.0270   36.0620   20.2750 C   0  0  0  0  0  0  0  0  0  0  0  0
   36.0560   35.8060   18.1540 C   0  0  0  0  0  0  0  0  0  0  0  0
   34.3100   35.1630   23.9420 C   0  0  0  0  0  0  0  0  0  0  0  0
   37.9750   35.9510   19.5090 F   0  0  0  0  0  0  0  0  0  0  0  0
   35.3190   35.2290   19.1970 O   0  0  0  0  0  0  0  0  0  0  0  0
   34.4390   40.1230   22.8150 N   0  0  0  0  0  0  0  0  0  0  0  0
   34.4730   34.0160   21.4120 O   0  0  0  0  0  0  0  0  0  0  0  0
   34.5130   35.9300   22.6810 N   0  0  0  0  0  0  0  0  0  0  0  0
   34.3460   37.9420   23.9470 N   0  0  0  0  0  0  0  0  0  0  0  0
   34.3000   39.9780   25.1820 N   0  0  0  0  0  0  0  0  0  0  0  0
   39.2800   36.7300   17.3530 H   0  0  0  0  0  0  0  0  0  0  0  0
   34.6040   38.3010   26.4760 H   0  0  0  0  0  0  0  0  0  0  0  0
   35.2420   38.0240   19.4150 H   0  0  0  0  0  0  0  0  0  0  0  0
   35.7360   36.4940   14.8360 H   0  0  0  0  0  0  0  0  0  0  0  0
   34.3690   35.7640   16.7800 H   0  0  0  0  0  0  0  0  0  0  0  0
   34.7110   40.1300   20.7440 H   0  0  0  0  0  0  0  0  0  0  0  0
   35.0800   35.4680   24.7020 H   0  0  0  0  0  0  0  0  0  0  0  0
   33.2910   35.3800   24.3630 H   0  0  0  0  0  0  0  0  0  0  0  0
   34.4020   34.0630   23.7460 H   0  0  0  0  0  0  0  0  0  0  0  0
   34.0780   40.9930   25.1990 H   0  0  0  0  0  0  0  0  0  0  0  0
   38.2700   37.0960   14.9690 F   0  0  0  0  0  0  0  0  0  0  0  0
   34.4030   40.1590   27.6290 C   0  0  0  0  0  0  0  0  0  0  0  0
   32.9050   39.0210   26.5020 H   0  0  0  0  0  0  0  0  0  0  0  0
   35.4900   40.4360   27.5290 H   0  0  0  0  0  0  0  0  0  0  0  0
   33.8480   41.1390   27.5430 H   0  0  0  0  0  0  0  0  0  0  0  0
   34.2620   40.8670   30.2760 C   0  0  0  0  0  0  0  0  0  0  0  0
   34.1130   39.4840   29.2350 S   0  0  0  0  0  0  0  0  0  0  0  0
   32.7560   38.8990   29.3390 O   0  0  0  0  0  0  0  0  0  0  0  0
   35.1400   38.4720   29.5820 O   0  0  0  0  0  0  0  0  0  0  0  0
   35.2330   41.4060   30.1150 H   0  0  0  0  0  0  0  0  0  0  0  0
   33.4580   41.6280   30.0910 H   0  0  0  0  0  0  0  0  0  0  0  0
   34.2130   40.6050   31.3620 H   0  0  0  0  0  0  0  0  0  0  0  0
  1  3  2  0  0  0  0
  1  8  1  0  0  0  0
  1 23  1  0  0  0  0
  2 13  1  0  0  0  0
  2 19  2  0  0  0  0
  2 20  1  0  0  0  0
  3 14  1  0  0  0  0
  3 16  1  0  0  0  0
  4 18  2  0  0  0  0
  4 21  1  0  0  0  0
  4 22  1  0  0  0  0
  5 22  1  0  0  0  0
  5 24  1  0  0  0  0
  5 34  1  0  0  0  0
  5 35  1  0  0  0  0
  6  7  1  0  0  0  0
  6 11  1  0  0  0  0
  6 12  2  0  0  0  0
  7 13  2  0  0  0  0
  7 25  1  0  0  0  0
  8  9  2  0  0  0  0
  8 33  1  0  0  0  0
  9 10  1  0  0  0  0
  9 26  1  0  0  0  0
 10 14  2  0  0  0  0
 10 27  1  0  0  0  0
 11 20  1  0  0  0  0
 11 21  2  0  0  0  0
 12 18  1  0  0  0  0
 12 28  1  0  0  0  0
 13 17  1  0  0  0  0
 14 17  1  0  0  0  0
 15 20  1  0  0  0  0
 15 29  1  0  0  0  0
 15 30  1  0  0  0  0
 15 31  1  0  0  0  0
 22 32  1  0  0  0  0
 34 36  1  0  0  0  0
 34 37  1  0  0  0  0
 34 39  1  0  0  0  0
 38 39  1  0  0  0  0
 38 42  1  0  0  0  0
 38 43  1  0  0  0  0
 38 44  1  0  0  0  0
 39 40  2  0  0  0  0
 39 41  2  0  0  0  0
M  END
$$$$
