p38a_2o
 OpenBabel02232411163D
Structure written by MMmdl.
 55 58  0  0  0  0  0  0  0  0999 V2000
   36.2910   35.8600   16.0620 C   0  0  0  0  0  0  0  0  0  0  0  0
   34.5200   35.0880   21.6970 C   0  0  0  0  0  0  0  0  0  0  0  0
   35.5720   35.4730   17.1890 C   0  0  0  0  0  0  0  0  0  0  0  0
   34.1930   39.2440   24.1600 C   0  0  0  0  0  0  0  0  0  0  0  0
   34.7470   37.9580   21.7790 C   0  0  0  0  0  0  0  0  0  0  0  0
   35.1000   37.2590   20.5720 C   0  0  0  0  0  0  0  0  0  0  0  0
   37.5880   36.3400   16.2840 C   0  0  0  0  0  0  0  0  0  0  0  0
   38.1820   36.4020   17.5480 C   0  0  0  0  0  0  0  0  0  0  0  0
   37.4290   36.0310   18.6680 C   0  0  0  0  0  0  0  0  0  0  0  0
   34.3880   37.2290   22.9500 C   0  0  0  0  0  0  0  0  0  0  0  0
   34.7420   39.3750   21.8830 C   0  0  0  0  0  0  0  0  0  0  0  0
   35.0260   35.9080   20.5610 C   0  0  0  0  0  0  0  0  0  0  0  0
   36.1220   35.5700   18.4840 C   0  0  0  0  0  0  0  0  0  0  0  0
   34.3460   34.9790   17.0690 F   0  0  0  0  0  0  0  0  0  0  0  0
   35.3250   35.0450   19.5090 O   0  0  0  0  0  0  0  0  0  0  0  0
   34.4710   40.0300   23.0230 N   0  0  0  0  0  0  0  0  0  0  0  0
   34.3180   33.8960   21.6620 O   0  0  0  0  0  0  0  0  0  0  0  0
   34.2820   35.8250   22.9150 N   0  0  0  0  0  0  0  0  0  0  0  0
   34.1380   37.8630   24.1390 N   0  0  0  0  0  0  0  0  0  0  0  0
   33.9420   39.8860   25.3470 N   0  0  0  0  0  0  0  0  0  0  0  0
   35.8600   35.8200   15.0570 H   0  0  0  0  0  0  0  0  0  0  0  0
   35.4310   37.8500   19.7130 H   0  0  0  0  0  0  0  0  0  0  0  0
   39.2070   36.7640   17.6640 H   0  0  0  0  0  0  0  0  0  0  0  0
   37.8570   36.1250   19.6680 H   0  0  0  0  0  0  0  0  0  0  0  0
   34.9610   39.9890   20.9920 H   0  0  0  0  0  0  0  0  0  0  0  0
   33.9590   40.9210   25.3940 H   0  0  0  0  0  0  0  0  0  0  0  0
   38.2760   36.7920   15.2380 F   0  0  0  0  0  0  0  0  0  0  0  0
   33.6090   40.9930   28.4010 C   0  0  0  0  0  0  0  0  0  0  0  0
   32.8050   39.9950   27.5580 C   0  0  0  0  0  0  0  0  0  0  0  0
   33.6650   39.1320   26.6130 C   0  0  0  0  0  0  0  0  0  0  0  0
   34.9770   38.6770   27.2850 C   0  0  0  0  0  0  0  0  0  0  0  0
   35.6650   39.8100   28.0480 C   0  0  0  0  0  0  0  0  0  0  0  0
   34.7670   40.3950   29.0200 O   0  0  0  0  0  0  0  0  0  0  0  0
   33.0150   41.3370   29.2780 H   0  0  0  0  0  0  0  0  0  0  0  0
   33.9470   41.8500   27.7790 H   0  0  0  0  0  0  0  0  0  0  0  0
   32.0470   40.5610   26.9610 H   0  0  0  0  0  0  0  0  0  0  0  0
   32.2500   39.2960   28.2330 H   0  0  0  0  0  0  0  0  0  0  0  0
   33.0640   38.2150   26.3390 H   0  0  0  0  0  0  0  0  0  0  0  0
   34.7220   37.8450   27.9900 H   0  0  0  0  0  0  0  0  0  0  0  0
   35.6720   38.2650   26.5130 H   0  0  0  0  0  0  0  0  0  0  0  0
   36.4910   39.4290   28.6900 H   0  0  0  0  0  0  0  0  0  0  0  0
   36.0090   40.6090   27.3530 H   0  0  0  0  0  0  0  0  0  0  0  0
   33.8400   35.0860   24.1530 C   0  0  0  0  0  0  0  0  0  0  0  0
   34.1120   34.0050   24.0070 H   0  0  0  0  0  0  0  0  0  0  0  0
   34.4160   35.5090   25.0280 H   0  0  0  0  0  0  0  0  0  0  0  0
   32.3400   35.2620   24.3970 C   0  0  0  0  0  0  0  0  0  0  0  0
   32.1700   36.2870   24.8470 H   0  0  0  0  0  0  0  0  0  0  0  0
   31.7800   35.2840   23.4230 H   0  0  0  0  0  0  0  0  0  0  0  0
   31.5990   34.0530   25.4530 S   0  0  0  0  0  0  0  0  0  0  0  0
   32.4560   33.7140   26.6090 O   0  0  0  0  0  0  0  0  0  0  0  0
   31.3030   32.8380   24.6570 O   0  0  0  0  0  0  0  0  0  0  0  0
   30.1280   34.8140   25.9660 C   0  0  0  0  0  0  0  0  0  0  0  0
   29.4860   35.1370   25.1080 H   0  0  0  0  0  0  0  0  0  0  0  0
   29.5000   34.1580   26.6220 H   0  0  0  0  0  0  0  0  0  0  0  0
   30.3130   35.7420   26.5770 H   0  0  0  0  0  0  0  0  0  0  0  0
  1  3  2  0  0  0  0
  1  7  1  0  0  0  0
  1 21  1  0  0  0  0
  2 12  1  0  0  0  0
  2 17  2  0  0  0  0
  2 18  1  0  0  0  0
  3 13  1  0  0  0  0
  3 14  1  0  0  0  0
  4 16  2  0  0  0  0
  4 19  1  0  0  0  0
  4 20  1  0  0  0  0
  5  6  1  0  0  0  0
  5 10  1  0  0  0  0
  5 11  2  0  0  0  0
  6 12  2  0  0  0  0
  6 22  1  0  0  0  0
  7  8  2  0  0  0  0
  7 27  1  0  0  0  0
  8  9  1  0  0  0  0
  8 23  1  0  0  0  0
  9 13  2  0  0  0  0
  9 24  1  0  0  0  0
 10 18  1  0  0  0  0
 10 19  2  0  0  0  0
 11 16  1  0  0  0  0
 11 25  1  0  0  0  0
 12 15  1  0  0  0  0
 13 15  1  0  0  0  0
 18 43  1  0  0  0  0
 20 26  1  0  0  0  0
 20 30  1  0  0  0  0
 28 29  1  0  0  0  0
 28 33  1  0  0  0  0
 28 34  1  0  0  0  0
 28 35  1  0  0  0  0
 29 30  1  0  0  0  0
 29 36  1  0  0  0  0
 29 37  1  0  0  0  0
 30 31  1  0  0  0  0
 30 38  1  0  0  0  0
 31 32  1  0  0  0  0
 31 39  1  0  0  0  0
 31 40  1  0  0  0  0
 32 33  1  0  0  0  0
 32 41  1  0  0  0  0
 32 42  1  0  0  0  0
 43 44  1  0  0  0  0
 43 45  1  0  0  0  0
 43 46  1  0  0  0  0
 46 47  1  0  0  0  0
 46 48  1  0  0  0  0
 46 49  1  0  0  0  0
 49 50  2  0  0  0  0
 49 51  2  0  0  0  0
 49 52  1  0  0  0  0
 52 53  1  0  0  0  0
 52 54  1  0  0  0  0
 52 55  1  0  0  0  0
M  END
$$$$
