ejm_45
                    3D
 Schrodinger Suite 2022-3.
 39 41  0  0  1  0  0  0  0  0999 V2000
   -3.1530   22.5960  -29.6430 C   0  0  0  0  0  0  0  0  0  0  0  0
   -3.6070   21.5090  -28.8790 C   0  0  0  0  0  0  0  0  0  0  0  0
   -2.7910   20.8830  -27.9370 C   0  0  0  0  0  0  0  0  0  0  0  0
   -5.1990   25.2170  -31.5120 C   0  0  0  0  0  0  0  0  0  0  0  0
   -4.0310   23.1100  -30.7460 C   0  0  0  0  0  0  0  0  0  0  0  0
   -5.8740   24.6530  -32.6060 C   0  0  0  0  0  0  0  0  0  0  0  0
   -6.7300   25.4740  -33.3530 C   0  0  0  0  0  0  0  0  0  0  0  0
   -1.8660   23.0800  -29.3790 C   0  0  0  0  0  0  0  0  0  0  0  0
   -1.4950   21.3650  -27.7240 C   0  0  0  0  0  0  0  0  0  0  0  0
   -1.0330   22.4760  -28.4340 C   0  0  0  0  0  0  0  0  0  0  0  0
   -5.2090   20.9420  -29.1130 Cl  0  0  0  0  0  0  0  0  0  0  0  0
   -4.4450   22.3870  -31.6270 O   0  0  0  0  0  0  0  0  0  0  0  0
   -4.3460   24.4790  -30.6430 N   0  0  0  0  0  0  0  0  0  0  0  0
   -6.9280   26.7890  -33.0880 N   0  0  0  0  0  0  0  0  0  0  0  0
   -6.2470   27.3340  -32.0160 C   0  0  0  0  0  0  0  0  0  0  0  0
   -5.3750   26.5840  -31.2140 C   0  0  0  0  0  0  0  0  0  0  0  0
   -6.5200   28.7100  -31.7840 N   0  0  0  0  0  0  0  0  0  0  0  0
   -5.7810   29.5780  -30.9310 C   0  0  0  0  0  0  0  0  0  0  0  0
   -4.8610   29.1590  -30.2580 O   0  0  0  0  0  0  0  0  0  0  0  0
   -6.2460   31.0170  -30.9750 C   0  0  0  0  0  0  0  0  0  0  0  0
   -1.2690   24.4590  -30.2070 Cl  0  0  0  0  0  0  0  0  0  0  0  0
   -3.1400   20.0220  -27.3630 H   0  0  0  0  0  0  0  0  0  0  0  0
   -5.7650   23.5990  -32.8740 H   0  0  0  0  0  0  0  0  0  0  0  0
   -7.2920   25.0630  -34.2090 H   0  0  0  0  0  0  0  0  0  0  0  0
   -0.8430   20.8750  -26.9920 H   0  0  0  0  0  0  0  0  0  0  0  0
   -0.0290   22.8620  -28.2350 H   0  0  0  0  0  0  0  0  0  0  0  0
   -3.9320   25.0100  -29.8540 H   0  0  0  0  0  0  0  0  0  0  0  0
   -4.8420   27.0500  -30.3780 H   0  0  0  0  0  0  0  0  0  0  0  0
   -7.3930   29.0770  -32.2240 H   0  0  0  0  0  0  0  0  0  0  0  0
   -5.9420   31.4640  -31.9570 H   0  0  0  0  0  0  0  0  0  0  0  0
   -7.3640   31.0900  -30.9300 H   0  0  0  0  0  0  0  0  0  0  0  0
   -6.0240   31.5230  -28.8550 H   0  0  0  0  0  0  0  0  0  0  0  0
   -5.6620   31.8390  -29.8420 C   0  0  0  0  0  0  0  0  0  0  0  0
   -4.2460   32.3900  -29.9430 C   0  0  0  0  0  0  0  0  0  0  0  0
   -5.4310   33.3300  -30.0570 C   0  0  0  0  0  0  0  0  0  0  0  0
   -3.6300   32.4260  -29.0340 H   0  0  0  0  0  0  0  0  0  0  0  0
   -3.6530   32.1800  -30.8420 H   0  0  0  0  0  0  0  0  0  0  0  0
   -5.6520   34.0200  -29.2310 H   0  0  0  0  0  0  0  0  0  0  0  0
   -5.6760   33.7700  -31.0330 H   0  0  0  0  0  0  0  0  0  0  0  0
  1  2  2  0  0  0  0
  1  5  1  0  0  0  0
  1  8  1  0  0  0  0
  2  3  1  0  0  0  0
  2 11  1  0  0  0  0
  3  9  2  0  0  0  0
  3 22  1  0  0  0  0
  4  6  1  0  0  0  0
  4 13  1  0  0  0  0
  4 16  2  0  0  0  0
  5 12  2  0  0  0  0
  5 13  1  0  0  0  0
  6  7  2  0  0  0  0
  6 23  1  0  0  0  0
  7 14  1  0  0  0  0
  7 24  1  0  0  0  0
  8 10  2  0  0  0  0
  8 21  1  0  0  0  0
  9 10  1  0  0  0  0
  9 25  1  0  0  0  0
 10 26  1  0  0  0  0
 13 27  1  0  0  0  0
 14 15  2  0  0  0  0
 15 16  1  0  0  0  0
 15 17  1  0  0  0  0
 16 28  1  0  0  0  0
 17 18  1  0  0  0  0
 17 29  1  0  0  0  0
 18 19  2  0  0  0  0
 18 20  1  0  0  0  0
 20 30  1  0  0  0  0
 20 31  1  0  0  0  0
 20 33  1  0  0  0  0
 32 33  1  0  0  0  0
 33 34  1  0  0  0  0
 33 35  1  0  0  0  0
 34 35  1  0  0  0  0
 34 36  1  0  0  0  0
 34 37  1  0  0  0  0
 35 38  1  0  0  0  0
 35 39  1  0  0  0  0
M  END
$$$$
