18660-1
 OpenBabel02232411163D
Structure written by MMmdl.
 52 53  0  0  0  0  0  0  0  0999 V2000
   22.0050   14.3940   30.7980 C   0  0  0  0  0  0  0  0  0  0  0  0
   22.5670   13.7960   29.2700 S   0  0  0  0  0  0  0  0  0  0  0  0
   23.3920   14.8150   28.5970 O   0  0  0  0  0  0  0  0  0  0  0  0
   21.3980   13.3980   28.4750 O   0  0  0  0  0  0  0  0  0  0  0  0
   23.6140   12.4510   29.7110 C   0  0  0  0  0  0  0  0  0  0  0  0
   22.9940   11.0850   29.9290 C   0  0  0  0  0  0  0  0  0  0  0  0
   22.0840   11.2200   31.0990 O   0  0  0  0  0  0  0  0  0  0  0  0
   21.5000   10.0770   31.5500 C   0  0  0  0  0  0  0  0  0  0  0  0
   21.9270    8.8980   31.0480 N   0  0  0  0  0  0  0  0  0  0  0  0
   21.2480    7.7470   31.4340 C   0  0  0  0  0  0  0  0  0  0  0  0
   20.1420    7.7830   32.2780 C   0  0  0  0  0  0  0  0  0  0  0  0
   19.6990    9.0290   32.7940 C   0  0  0  0  0  0  0  0  0  0  0  0
   18.5620    9.0770   33.5590 N   0  0  0  0  0  0  0  0  0  0  0  0
   20.4240   10.2240   32.4710 C   0  0  0  0  0  0  0  0  0  0  0  0
   20.0960   11.5020   32.9690 C   0  0  0  0  0  0  0  0  0  0  0  0
   19.8520   12.5680   33.3530 N   0  0  0  0  0  0  0  0  0  0  0  0
   21.8020    6.5930   30.8480 N   0  0  0  0  0  0  0  0  0  0  0  0
   21.2420    5.2900   30.8310 C   0  0  0  0  0  0  0  0  0  0  0  0
   20.1890    5.0220   31.3670 O   0  0  0  0  0  0  0  0  0  0  0  0
   22.0610    4.3030   30.0120 C   0  0  0  0  0  0  0  0  0  0  0  0
   23.4090    4.0310   30.6150 C   0  0  0  0  0  0  0  0  0  0  0  0
   24.5150    4.8820   30.3250 C   0  0  0  0  0  0  0  0  0  0  0  0
   24.1910    5.9180   29.4530 O   0  0  0  0  0  0  0  0  0  0  0  0
   25.1580    6.9940   29.3140 C   0  0  0  0  0  0  0  0  0  0  0  0
   25.7770    4.6500   30.8610 C   0  0  0  0  0  0  0  0  0  0  0  0
   25.9740    3.5620   31.7240 C   0  0  0  0  0  0  0  0  0  0  0  0
   24.8960    2.7270   32.0160 C   0  0  0  0  0  0  0  0  0  0  0  0
   23.6150    2.9430   31.4520 C   0  0  0  0  0  0  0  0  0  0  0  0
   24.9220    1.6280   32.8490 O   0  0  0  0  0  0  0  0  0  0  0  0
   26.1780    1.3130   33.5050 C   0  0  0  0  0  0  0  0  0  0  0  0
   22.8370   14.5710   31.5320 H   0  0  0  0  0  0  0  0  0  0  0  0
   21.3050   13.6690   31.2980 H   0  0  0  0  0  0  0  0  0  0  0  0
   21.4600   15.3690   30.7000 H   0  0  0  0  0  0  0  0  0  0  0  0
   24.3910   12.2890   28.8980 H   0  0  0  0  0  0  0  0  0  0  0  0
   24.2190   12.7160   30.6250 H   0  0  0  0  0  0  0  0  0  0  0  0
   22.3750   10.7460   29.0680 H   0  0  0  0  0  0  0  0  0  0  0  0
   23.7840   10.3390   30.1960 H   0  0  0  0  0  0  0  0  0  0  0  0
   19.5990    6.8710   32.5350 H   0  0  0  0  0  0  0  0  0  0  0  0
   18.2030    9.9630   33.9160 H   0  0  0  0  0  0  0  0  0  0  0  0
   18.0650    8.2090   33.8370 H   0  0  0  0  0  0  0  0  0  0  0  0
   22.7030    6.7490   30.3260 H   0  0  0  0  0  0  0  0  0  0  0  0
   21.4860    3.3450   29.9230 H   0  0  0  0  0  0  0  0  0  0  0  0
   22.2020    4.7340   28.9820 H   0  0  0  0  0  0  0  0  0  0  0  0
   26.0360    6.6270   28.7410 H   0  0  0  0  0  0  0  0  0  0  0  0
   24.5770    7.7490   28.7360 H   0  0  0  0  0  0  0  0  0  0  0  0
   25.4490    7.3920   30.3100 H   0  0  0  0  0  0  0  0  0  0  0  0
   26.6290    5.2910   30.6250 H   0  0  0  0  0  0  0  0  0  0  0  0
   26.9710    3.4010   32.1400 H   0  0  0  0  0  0  0  0  0  0  0  0
   22.8100    2.2410   31.6860 H   0  0  0  0  0  0  0  0  0  0  0  0
   25.9020    0.4150   34.1050 H   0  0  0  0  0  0  0  0  0  0  0  0
   26.4920    2.1550   34.1600 H   0  0  0  0  0  0  0  0  0  0  0  0
   26.9550    1.0670   32.7490 H   0  0  0  0  0  0  0  0  0  0  0  0
  1  2  1  0  0  0  0
  1 31  1  0  0  0  0
  1 32  1  0  0  0  0
  1 33  1  0  0  0  0
  2  3  2  0  0  0  0
  2  4  2  0  0  0  0
  2  5  1  0  0  0  0
  5  6  1  0  0  0  0
  5 34  1  0  0  0  0
  5 35  1  0  0  0  0
  6  7  1  0  0  0  0
  6 36  1  0  0  0  0
  6 37  1  0  0  0  0
  7  8  1  0  0  0  0
  8 14  2  0  0  0  0
  8  9  1  0  0  0  0
  9 10  2  0  0  0  0
 10 11  1  0  0  0  0
 10 17  1  0  0  0  0
 11 12  2  0  0  0  0
 11 38  1  0  0  0  0
 12 13  1  0  0  0  0
 12 14  1  0  0  0  0
 13 39  1  0  0  0  0
 13 40  1  0  0  0  0
 14 15  1  0  0  0  0
 15 16  3  0  0  0  0
 17 18  1  0  0  0  0
 17 41  1  0  0  0  0
 18 19  2  0  0  0  0
 18 20  1  0  0  0  0
 20 21  1  0  0  0  0
 20 42  1  0  0  0  0
 20 43  1  0  0  0  0
 21 28  2  0  0  0  0
 21 22  1  0  0  0  0
 22 23  1  0  0  0  0
 22 25  2  0  0  0  0
 23 24  1  0  0  0  0
 24 44  1  0  0  0  0
 24 45  1  0  0  0  0
 24 46  1  0  0  0  0
 25 26  1  0  0  0  0
 25 47  1  0  0  0  0
 26 27  2  0  0  0  0
 26 48  1  0  0  0  0
 27 28  1  0  0  0  0
 27 29  1  0  0  0  0
 28 49  1  0  0  0  0
 29 30  1  0  0  0  0
 30 50  1  0  0  0  0
 30 51  1  0  0  0  0
 30 52  1  0  0  0  0
M  END
$$$$
