p38a_2e
 OpenBabel02232411163D
Structure written by MMmdl.
 46 49  0  0  0  0  0  0  0  0999 V2000
   32.2980   39.6240   27.1420 C   0  0  0  0  0  0  0  0  0  0  0  0
   33.1740   40.4500   28.0910 C   0  0  0  0  0  0  0  0  0  0  0  0
   35.0730   39.0140   27.7750 C   0  0  0  0  0  0  0  0  0  0  0  0
   34.2880   38.0470   26.8890 C   0  0  0  0  0  0  0  0  0  0  0  0
   36.3170   36.3720   15.6890 C   0  0  0  0  0  0  0  0  0  0  0  0
   34.2000   39.6620   28.7300 O   0  0  0  0  0  0  0  0  0  0  0  0
   34.4880   34.9910   21.1330 C   0  0  0  0  0  0  0  0  0  0  0  0
   35.5610   35.8870   16.7580 C   0  0  0  0  0  0  0  0  0  0  0  0
   33.9210   38.9840   23.8110 C   0  0  0  0  0  0  0  0  0  0  0  0
   33.1040   38.7320   26.1740 C   0  0  0  0  0  0  0  0  0  0  0  0
   34.6820   37.8560   21.4080 C   0  0  0  0  0  0  0  0  0  0  0  0
   35.1250   37.2320   20.1910 C   0  0  0  0  0  0  0  0  0  0  0  0
   37.6620   36.6830   15.9120 C   0  0  0  0  0  0  0  0  0  0  0  0
   38.2950   36.5190   17.1500 C   0  0  0  0  0  0  0  0  0  0  0  0
   37.5350   36.0470   18.2230 C   0  0  0  0  0  0  0  0  0  0  0  0
   34.1970   37.0560   22.4850 C   0  0  0  0  0  0  0  0  0  0  0  0
   34.7100   39.2610   21.6180 C   0  0  0  0  0  0  0  0  0  0  0  0
   35.0520   35.8840   20.0840 C   0  0  0  0  0  0  0  0  0  0  0  0
   36.1870   35.7330   18.0010 C   0  0  0  0  0  0  0  0  0  0  0  0
   33.5670   34.8600   23.4810 C   0  0  0  0  0  0  0  0  0  0  0  0
   34.5000   35.6590   16.6240 H   0  0  0  0  0  0  0  0  0  0  0  0
   38.3600   37.2050   14.9040 F   0  0  0  0  0  0  0  0  0  0  0  0
   35.4320   35.0950   19.0060 O   0  0  0  0  0  0  0  0  0  0  0  0
   34.3510   39.8390   22.7740 N   0  0  0  0  0  0  0  0  0  0  0  0
   34.3460   33.7910   21.0310 O   0  0  0  0  0  0  0  0  0  0  0  0
   34.0960   35.6610   22.3420 N   0  0  0  0  0  0  0  0  0  0  0  0
   33.8220   37.6100   23.6810 N   0  0  0  0  0  0  0  0  0  0  0  0
   33.5560   39.5550   25.0050 N   0  0  0  0  0  0  0  0  0  0  0  0
   31.6290   38.9530   27.7370 H   0  0  0  0  0  0  0  0  0  0  0  0
   31.6500   40.3210   26.5540 H   0  0  0  0  0  0  0  0  0  0  0  0
   33.6640   41.2890   27.5480 H   0  0  0  0  0  0  0  0  0  0  0  0
   32.5810   40.8220   28.9580 H   0  0  0  0  0  0  0  0  0  0  0  0
   35.7860   38.4740   28.4390 H   0  0  0  0  0  0  0  0  0  0  0  0
   35.5840   39.7940   27.1660 H   0  0  0  0  0  0  0  0  0  0  0  0
   34.9750   37.5830   26.1410 H   0  0  0  0  0  0  0  0  0  0  0  0
   33.8680   37.2160   27.5130 H   0  0  0  0  0  0  0  0  0  0  0  0
   35.8510   36.5230   14.7140 H   0  0  0  0  0  0  0  0  0  0  0  0
   32.4150   37.9290   25.7770 H   0  0  0  0  0  0  0  0  0  0  0  0
   35.5130   37.8710   19.3960 H   0  0  0  0  0  0  0  0  0  0  0  0
   39.3450   36.7880   17.2910 H   0  0  0  0  0  0  0  0  0  0  0  0
   37.9790   35.9640   19.2160 H   0  0  0  0  0  0  0  0  0  0  0  0
   35.0380   39.9290   20.8050 H   0  0  0  0  0  0  0  0  0  0  0  0
   34.2000   35.0300   24.3950 H   0  0  0  0  0  0  0  0  0  0  0  0
   32.5160   35.1780   23.7180 H   0  0  0  0  0  0  0  0  0  0  0  0
   33.5750   33.7690   23.2280 H   0  0  0  0  0  0  0  0  0  0  0  0
   33.6580   40.5770   25.1430 H   0  0  0  0  0  0  0  0  0  0  0  0
  1  2  1  0  0  0  0
  1 10  1  0  0  0  0
  1 29  1  0  0  0  0
  1 30  1  0  0  0  0
  2  6  1  0  0  0  0
  2 31  1  0  0  0  0
  2 32  1  0  0  0  0
  3  4  1  0  0  0  0
  3  6  1  0  0  0  0
  3 33  1  0  0  0  0
  3 34  1  0  0  0  0
  4 10  1  0  0  0  0
  4 35  1  0  0  0  0
  4 36  1  0  0  0  0
  5  8  2  0  0  0  0
  5 13  1  0  0  0  0
  5 37  1  0  0  0  0
  7 18  1  0  0  0  0
  7 25  2  0  0  0  0
  7 26  1  0  0  0  0
  8 19  1  0  0  0  0
  8 21  1  0  0  0  0
  9 24  2  0  0  0  0
  9 27  1  0  0  0  0
  9 28  1  0  0  0  0
 10 28  1  0  0  0  0
 10 38  1  0  0  0  0
 11 12  1  0  0  0  0
 11 16  1  0  0  0  0
 11 17  2  0  0  0  0
 12 18  2  0  0  0  0
 12 39  1  0  0  0  0
 13 14  2  0  0  0  0
 13 22  1  0  0  0  0
 14 15  1  0  0  0  0
 14 40  1  0  0  0  0
 15 19  2  0  0  0  0
 15 41  1  0  0  0  0
 16 26  1  0  0  0  0
 16 27  2  0  0  0  0
 17 24  1  0  0  0  0
 17 42  1  0  0  0  0
 18 23  1  0  0  0  0
 19 23  1  0  0  0  0
 20 26  1  0  0  0  0
 20 43  1  0  0  0  0
 20 44  1  0  0  0  0
 20 45  1  0  0  0  0
 28 46  1  0  0  0  0
M  END
$$$$
