p38a_3flw
 OpenBabel02232411163D
Structure written by MMmdl.
 49 51  0  0  0  0  0  0  0  0999 V2000
   36.3200   36.0330   15.8730 C   0  0  0  0  0  0  0  0  0  0  0  0
   37.6240   36.5130   16.0510 C   0  0  0  0  0  0  0  0  0  0  0  0
   33.7290   40.0030   27.6400 C   0  0  0  0  0  0  0  0  0  0  0  0
   35.2220   40.3290   27.7910 C   0  0  0  0  0  0  0  0  0  0  0  0
   31.8430   38.9040   26.3480 C   0  0  0  0  0  0  0  0  0  0  0  0
   34.3150   35.0450   23.9950 C   0  0  0  0  0  0  0  0  0  0  0  0
   34.4310   35.1010   16.9380 F   0  0  0  0  0  0  0  0  0  0  0  0
   35.6570   35.6010   17.0170 C   0  0  0  0  0  0  0  0  0  0  0  0
   38.2570   37.0070   14.9890 F   0  0  0  0  0  0  0  0  0  0  0  0
   38.2750   36.5350   17.2870 C   0  0  0  0  0  0  0  0  0  0  0  0
   37.5750   36.1270   18.4280 C   0  0  0  0  0  0  0  0  0  0  0  0
   36.2640   35.6630   18.2890 C   0  0  0  0  0  0  0  0  0  0  0  0
   35.5230   35.0990   19.3340 O   0  0  0  0  0  0  0  0  0  0  0  0
   35.1730   35.9530   20.3770 C   0  0  0  0  0  0  0  0  0  0  0  0
   35.2150   37.3050   20.4030 C   0  0  0  0  0  0  0  0  0  0  0  0
   34.8200   37.9830   21.6110 C   0  0  0  0  0  0  0  0  0  0  0  0
   34.7210   39.3960   21.7170 C   0  0  0  0  0  0  0  0  0  0  0  0
   34.3870   40.0270   22.8550 N   0  0  0  0  0  0  0  0  0  0  0  0
   34.6720   35.1140   21.5010 C   0  0  0  0  0  0  0  0  0  0  0  0
   34.4070   33.9360   21.4420 O   0  0  0  0  0  0  0  0  0  0  0  0
   34.5070   35.8290   22.7430 N   0  0  0  0  0  0  0  0  0  0  0  0
   34.5130   37.2300   22.7820 C   0  0  0  0  0  0  0  0  0  0  0  0
   34.1770   37.8440   23.9640 N   0  0  0  0  0  0  0  0  0  0  0  0
   34.1320   39.2230   23.9830 C   0  0  0  0  0  0  0  0  0  0  0  0
   33.8440   39.8630   25.1670 N   0  0  0  0  0  0  0  0  0  0  0  0
   33.3730   39.1540   26.3970 C   0  0  0  0  0  0  0  0  0  0  0  0
   31.4770   37.4120   26.3700 C   0  0  0  0  0  0  0  0  0  0  0  0
   31.5770   36.8090   25.0730 O   0  0  0  0  0  0  0  0  0  0  0  0
   35.4810   41.7150   27.4890 O   0  0  0  0  0  0  0  0  0  0  0  0
   35.8430   36.0210   14.8890 H   0  0  0  0  0  0  0  0  0  0  0  0
   33.3940   39.4190   28.5370 H   0  0  0  0  0  0  0  0  0  0  0  0
   33.1520   40.9610   27.6260 H   0  0  0  0  0  0  0  0  0  0  0  0
   35.5480   40.2370   28.8530 H   0  0  0  0  0  0  0  0  0  0  0  0
   35.8480   39.7040   27.1170 H   0  0  0  0  0  0  0  0  0  0  0  0
   31.3620   39.3790   27.2400 H   0  0  0  0  0  0  0  0  0  0  0  0
   31.3980   39.3840   25.4440 H   0  0  0  0  0  0  0  0  0  0  0  0
   34.7720   35.5890   24.8670 H   0  0  0  0  0  0  0  0  0  0  0  0
   33.2230   34.8900   24.1990 H   0  0  0  0  0  0  0  0  0  0  0  0
   34.8200   34.0480   23.9010 H   0  0  0  0  0  0  0  0  0  0  0  0
   39.3040   36.8960   17.3720 H   0  0  0  0  0  0  0  0  0  0  0  0
   38.0500   36.1960   19.4090 H   0  0  0  0  0  0  0  0  0  0  0  0
   35.5450   37.9110   19.5570 H   0  0  0  0  0  0  0  0  0  0  0  0
   34.9110   40.0280   20.8330 H   0  0  0  0  0  0  0  0  0  0  0  0
   33.7290   40.8920   25.1720 H   0  0  0  0  0  0  0  0  0  0  0  0
   33.9240   38.1750   26.4690 H   0  0  0  0  0  0  0  0  0  0  0  0
   32.1370   36.8540   27.0780 H   0  0  0  0  0  0  0  0  0  0  0  0
   30.4040   37.2750   26.6400 H   0  0  0  0  0  0  0  0  0  0  0  0
   32.4830   36.9990   24.7210 H   0  0  0  0  0  0  0  0  0  0  0  0
   34.9690   41.9360   26.6560 H   0  0  0  0  0  0  0  0  0  0  0  0
  1  2  2  0  0  0  0
  1  8  1  0  0  0  0
  1 30  1  0  0  0  0
  2  9  1  0  0  0  0
  2 10  1  0  0  0  0
  3  4  1  0  0  0  0
  3 26  1  0  0  0  0
  3 31  1  0  0  0  0
  3 32  1  0  0  0  0
  4 29  1  0  0  0  0
  4 33  1  0  0  0  0
  4 34  1  0  0  0  0
  5 26  1  0  0  0  0
  5 27  1  0  0  0  0
  5 35  1  0  0  0  0
  5 36  1  0  0  0  0
  6 21  1  0  0  0  0
  6 37  1  0  0  0  0
  6 38  1  0  0  0  0
  6 39  1  0  0  0  0
  7  8  1  0  0  0  0
  8 12  2  0  0  0  0
 10 11  2  0  0  0  0
 10 40  1  0  0  0  0
 11 12  1  0  0  0  0
 11 41  1  0  0  0  0
 12 13  1  0  0  0  0
 13 14  1  0  0  0  0
 14 15  2  0  0  0  0
 14 19  1  0  0  0  0
 15 16  1  0  0  0  0
 15 42  1  0  0  0  0
 16 17  2  0  0  0  0
 16 22  1  0  0  0  0
 17 18  1  0  0  0  0
 17 43  1  0  0  0  0
 18 24  2  0  0  0  0
 19 20  2  0  0  0  0
 19 21  1  0  0  0  0
 21 22  1  0  0  0  0
 22 23  2  0  0  0  0
 23 24  1  0  0  0  0
 24 25  1  0  0  0  0
 25 26  1  0  0  0  0
 25 44  1  0  0  0  0
 26 45  1  0  0  0  0
 27 28  1  0  0  0  0
 27 46  1  0  0  0  0
 27 47  1  0  0  0  0
 28 48  1  0  0  0  0
 29 49  1  0  0  0  0
M  END
$$$$
