18637-1
 OpenBabel02232411163D
Structure written by MMmdl.
 53 54  0  0  0  0  0  0  0  0999 V2000
   23.8710   12.5930   30.3260 C   0  0  0  0  0  0  0  0  0  0  0  0
   23.4350   11.1460   30.4650 C   0  0  0  0  0  0  0  0  0  0  0  0
   22.1780   11.2470   31.2480 O   0  0  0  0  0  0  0  0  0  0  0  0
   21.5380   10.1080   31.5890 C   0  0  0  0  0  0  0  0  0  0  0  0
   22.0150    8.9190   31.1530 N   0  0  0  0  0  0  0  0  0  0  0  0
   21.2800    7.7820   31.4630 C   0  0  0  0  0  0  0  0  0  0  0  0
   20.1190    7.8270   32.2310 C   0  0  0  0  0  0  0  0  0  0  0  0
   19.6380    9.0770   32.6990 C   0  0  0  0  0  0  0  0  0  0  0  0
   18.4920    9.1260   33.4530 N   0  0  0  0  0  0  0  0  0  0  0  0
   20.3510   10.2720   32.3630 C   0  0  0  0  0  0  0  0  0  0  0  0
   19.9310   11.5730   32.7130 C   0  0  0  0  0  0  0  0  0  0  0  0
   19.6310   12.6660   32.9600 N   0  0  0  0  0  0  0  0  0  0  0  0
   21.8420    6.6190   30.8950 N   0  0  0  0  0  0  0  0  0  0  0  0
   21.2310    5.3430   30.8140 C   0  0  0  0  0  0  0  0  0  0  0  0
   20.1550    5.1040   31.3200 O   0  0  0  0  0  0  0  0  0  0  0  0
   22.0170    4.3440   29.9770 C   0  0  0  0  0  0  0  0  0  0  0  0
   23.3220    3.9540   30.6040 C   0  0  0  0  0  0  0  0  0  0  0  0
   24.4800    4.7380   30.3970 C   0  0  0  0  0  0  0  0  0  0  0  0
   24.2570    5.8280   29.5690 O   0  0  0  0  0  0  0  0  0  0  0  0
   25.3410    6.7730   29.3740 C   0  0  0  0  0  0  0  0  0  0  0  0
   25.7080    4.4060   30.9730 C   0  0  0  0  0  0  0  0  0  0  0  0
   25.8170    3.2520   31.7670 C   0  0  0  0  0  0  0  0  0  0  0  0
   24.6650    2.4350   31.9540 C   0  0  0  0  0  0  0  0  0  0  0  0
   23.4400    2.7960   31.3810 C   0  0  0  0  0  0  0  0  0  0  0  0
   24.8600    1.3230   32.7510 O   0  0  0  0  0  0  0  0  0  0  0  0
   23.9250    0.2260   32.5570 C   0  0  0  0  0  0  0  0  0  0  0  0
   27.1020    2.9240   32.2920 N   0  0  0  0  0  0  0  0  0  0  0  0
   27.3800    2.3650   33.5710 C   0  0  0  0  0  0  0  0  0  0  0  0
   26.4860    2.0320   34.3220 O   0  0  0  0  0  0  0  0  0  0  0  0
   28.8480    2.2400   33.8490 C   0  0  0  0  0  0  0  0  0  0  0  0
   24.0590   13.0580   31.3190 H   0  0  0  0  0  0  0  0  0  0  0  0
   23.1000   13.1930   29.7870 H   0  0  0  0  0  0  0  0  0  0  0  0
   24.8170   12.6250   29.7290 H   0  0  0  0  0  0  0  0  0  0  0  0
   23.1900   10.6800   29.4840 H   0  0  0  0  0  0  0  0  0  0  0  0
   24.1600   10.5350   31.0490 H   0  0  0  0  0  0  0  0  0  0  0  0
   19.5610    6.9170   32.4630 H   0  0  0  0  0  0  0  0  0  0  0  0
   18.0940   10.0140   33.7580 H   0  0  0  0  0  0  0  0  0  0  0  0
   17.9830    8.2590   33.7110 H   0  0  0  0  0  0  0  0  0  0  0  0
   22.7720    6.7500   30.4260 H   0  0  0  0  0  0  0  0  0  0  0  0
   21.3850    3.4330   29.8190 H   0  0  0  0  0  0  0  0  0  0  0  0
   22.2220    4.8110   28.9740 H   0  0  0  0  0  0  0  0  0  0  0  0
   25.6560    7.2060   30.3480 H   0  0  0  0  0  0  0  0  0  0  0  0
   26.1830    6.2760   28.8460 H   0  0  0  0  0  0  0  0  0  0  0  0
   24.8540    7.5400   28.7290 H   0  0  0  0  0  0  0  0  0  0  0  0
   26.5910    5.0260   30.7950 H   0  0  0  0  0  0  0  0  0  0  0  0
   22.5600    2.1640   31.5260 H   0  0  0  0  0  0  0  0  0  0  0  0
   24.3970   -0.5870   33.1560 H   0  0  0  0  0  0  0  0  0  0  0  0
   22.9260    0.4940   32.9650 H   0  0  0  0  0  0  0  0  0  0  0  0
   23.8780   -0.0520   31.4820 H   0  0  0  0  0  0  0  0  0  0  0  0
   27.8980    3.3170   31.7550 H   0  0  0  0  0  0  0  0  0  0  0  0
   29.3370    3.2480   33.9110 H   0  0  0  0  0  0  0  0  0  0  0  0
   29.0390    1.7120   34.8170 H   0  0  0  0  0  0  0  0  0  0  0  0
   29.3760    1.6660   33.0430 H   0  0  0  0  0  0  0  0  0  0  0  0
  1  2  1  0  0  0  0
  1 31  1  0  0  0  0
  1 32  1  0  0  0  0
  1 33  1  0  0  0  0
  2  3  1  0  0  0  0
  2 34  1  0  0  0  0
  2 35  1  0  0  0  0
  3  4  1  0  0  0  0
  4 10  2  0  0  0  0
  4  5  1  0  0  0  0
  5  6  2  0  0  0  0
  6  7  1  0  0  0  0
  6 13  1  0  0  0  0
  7  8  2  0  0  0  0
  7 36  1  0  0  0  0
  8  9  1  0  0  0  0
  8 10  1  0  0  0  0
  9 37  1  0  0  0  0
  9 38  1  0  0  0  0
 10 11  1  0  0  0  0
 11 12  3  0  0  0  0
 13 14  1  0  0  0  0
 13 39  1  0  0  0  0
 14 15  2  0  0  0  0
 14 16  1  0  0  0  0
 16 17  1  0  0  0  0
 16 40  1  0  0  0  0
 16 41  1  0  0  0  0
 17 24  2  0  0  0  0
 17 18  1  0  0  0  0
 18 19  1  0  0  0  0
 18 21  2  0  0  0  0
 19 20  1  0  0  0  0
 20 42  1  0  0  0  0
 20 43  1  0  0  0  0
 20 44  1  0  0  0  0
 21 22  1  0  0  0  0
 21 45  1  0  0  0  0
 22 23  2  0  0  0  0
 22 27  1  0  0  0  0
 23 24  1  0  0  0  0
 23 25  1  0  0  0  0
 24 46  1  0  0  0  0
 25 26  1  0  0  0  0
 26 47  1  0  0  0  0
 26 48  1  0  0  0  0
 26 49  1  0  0  0  0
 27 28  1  0  0  0  0
 27 50  1  0  0  0  0
 28 29  2  0  0  0  0
 28 30  1  0  0  0  0
 30 51  1  0  0  0  0
 30 52  1  0  0  0  0
 30 53  1  0  0  0  0
M  END
$$$$
