p38a_2u
 OpenBabel02232411163D
Structure written by MMmdl.
 64 68  0  0  0  0  0  0  0  0999 V2000
   38.2520   36.5010   17.2310 C   0  0  0  0  0  0  0  0  0  0  0  0
   34.5220   35.1570   21.3910 C   0  0  0  0  0  0  0  0  0  0  0  0
   37.4890   36.0740   18.3150 C   0  0  0  0  0  0  0  0  0  0  0  0
   34.0240   39.3150   23.8160 C   0  0  0  0  0  0  0  0  0  0  0  0
   34.6310   38.0380   21.4490 C   0  0  0  0  0  0  0  0  0  0  0  0
   35.0390   37.3450   20.2580 C   0  0  0  0  0  0  0  0  0  0  0  0
   37.5820   36.6230   16.0070 C   0  0  0  0  0  0  0  0  0  0  0  0
   36.2300   36.3130   15.8350 C   0  0  0  0  0  0  0  0  0  0  0  0
   35.4890   35.8760   16.9380 C   0  0  0  0  0  0  0  0  0  0  0  0
   34.2440   37.3000   22.6060 C   0  0  0  0  0  0  0  0  0  0  0  0
   34.6130   39.4550   21.5520 C   0  0  0  0  0  0  0  0  0  0  0  0
   35.0250   35.9930   20.2610 C   0  0  0  0  0  0  0  0  0  0  0  0
   36.1240   35.7450   18.1760 C   0  0  0  0  0  0  0  0  0  0  0  0
   38.0480   35.9700   19.5140 F   0  0  0  0  0  0  0  0  0  0  0  0
   35.4280   35.1430   19.2330 O   0  0  0  0  0  0  0  0  0  0  0  0
   34.3210   40.1050   22.6880 N   0  0  0  0  0  0  0  0  0  0  0  0
   34.4250   33.9500   21.3500 O   0  0  0  0  0  0  0  0  0  0  0  0
   34.1260   35.8940   22.5620 N   0  0  0  0  0  0  0  0  0  0  0  0
   33.9710   37.9350   23.7910 N   0  0  0  0  0  0  0  0  0  0  0  0
   33.7010   39.9650   24.9860 N   0  0  0  0  0  0  0  0  0  0  0  0
   39.3080   36.7650   17.3380 H   0  0  0  0  0  0  0  0  0  0  0  0
   35.3620   37.9370   19.4000 H   0  0  0  0  0  0  0  0  0  0  0  0
   35.7430   36.4230   14.8630 H   0  0  0  0  0  0  0  0  0  0  0  0
   34.4220   35.6540   16.8250 H   0  0  0  0  0  0  0  0  0  0  0  0
   34.8430   40.0690   20.6660 H   0  0  0  0  0  0  0  0  0  0  0  0
   33.8310   40.9940   25.0500 H   0  0  0  0  0  0  0  0  0  0  0  0
   38.2610   37.0950   14.9640 F   0  0  0  0  0  0  0  0  0  0  0  0
   32.5630   39.3510   28.5810 C   0  0  0  0  0  0  0  0  0  0  0  0
   32.5600   39.9490   27.1690 C   0  0  0  0  0  0  0  0  0  0  0  0
   33.6340   39.2560   26.3020 C   0  0  0  0  0  0  0  0  0  0  0  0
   35.0090   39.3080   27.0040 C   0  0  0  0  0  0  0  0  0  0  0  0
   34.8940   38.7440   28.4260 C   0  0  0  0  0  0  0  0  0  0  0  0
   33.8730   39.4260   29.1890 O   0  0  0  0  0  0  0  0  0  0  0  0
   32.2310   38.2880   28.5650 H   0  0  0  0  0  0  0  0  0  0  0  0
   31.9450   39.9650   29.2770 H   0  0  0  0  0  0  0  0  0  0  0  0
   32.7720   41.0430   27.2300 H   0  0  0  0  0  0  0  0  0  0  0  0
   31.5570   39.8100   26.7010 H   0  0  0  0  0  0  0  0  0  0  0  0
   33.3370   38.1840   26.1310 H   0  0  0  0  0  0  0  0  0  0  0  0
   35.7480   38.7000   26.4290 H   0  0  0  0  0  0  0  0  0  0  0  0
   35.3730   40.3630   27.0430 H   0  0  0  0  0  0  0  0  0  0  0  0
   34.6620   37.6540   28.4030 H   0  0  0  0  0  0  0  0  0  0  0  0
   35.8150   38.9530   29.0170 H   0  0  0  0  0  0  0  0  0  0  0  0
   34.0610   33.8740   25.8620 C   0  0  0  0  0  0  0  0  0  0  0  0
   34.6790   34.4650   24.5730 C   0  0  0  0  0  0  0  0  0  0  0  0
   33.5730   35.1840   23.7790 C   0  0  0  0  0  0  0  0  0  0  0  0
   32.4670   34.1790   23.4080 C   0  0  0  0  0  0  0  0  0  0  0  0
   31.8660   33.5990   24.7040 C   0  0  0  0  0  0  0  0  0  0  0  0
   33.7370   34.7220   26.5270 H   0  0  0  0  0  0  0  0  0  0  0  0
   34.8680   33.2940   26.3840 H   0  0  0  0  0  0  0  0  0  0  0  0
   35.1340   33.6450   23.9720 H   0  0  0  0  0  0  0  0  0  0  0  0
   35.4760   35.1890   24.8690 H   0  0  0  0  0  0  0  0  0  0  0  0
   33.1130   35.9720   24.4490 H   0  0  0  0  0  0  0  0  0  0  0  0
   31.6550   34.6840   22.8350 H   0  0  0  0  0  0  0  0  0  0  0  0
   32.8870   33.3470   22.7910 H   0  0  0  0  0  0  0  0  0  0  0  0
   31.3500   34.4270   25.2630 H   0  0  0  0  0  0  0  0  0  0  0  0
   31.1180   32.8130   24.4120 H   0  0  0  0  0  0  0  0  0  0  0  0
   32.9210   32.9540   25.5510 N   0  0  0  0  0  0  0  0  0  0  0  0
   32.3260   31.9750   26.8510 S   0  0  0  0  0  0  0  0  0  0  0  0
   31.3110   31.0700   26.2730 O   0  0  0  0  0  0  0  0  0  0  0  0
   31.7590   32.8090   27.9270 O   0  0  0  0  0  0  0  0  0  0  0  0
   33.7150   31.0980   27.4030 C   0  0  0  0  0  0  0  0  0  0  0  0
   34.3250   30.6970   26.5540 H   0  0  0  0  0  0  0  0  0  0  0  0
   34.3820   31.7180   28.0600 H   0  0  0  0  0  0  0  0  0  0  0  0
   33.4180   30.2100   28.0290 H   0  0  0  0  0  0  0  0  0  0  0  0
  1  3  2  0  0  0  0
  1  7  1  0  0  0  0
  1 21  1  0  0  0  0
  2 12  1  0  0  0  0
  2 17  2  0  0  0  0
  2 18  1  0  0  0  0
  3 13  1  0  0  0  0
  3 14  1  0  0  0  0
  4 16  2  0  0  0  0
  4 19  1  0  0  0  0
  4 20  1  0  0  0  0
  5  6  1  0  0  0  0
  5 10  1  0  0  0  0
  5 11  2  0  0  0  0
  6 12  2  0  0  0  0
  6 22  1  0  0  0  0
  7  8  2  0  0  0  0
  7 27  1  0  0  0  0
  8  9  1  0  0  0  0
  8 23  1  0  0  0  0
  9 13  2  0  0  0  0
  9 24  1  0  0  0  0
 10 18  1  0  0  0  0
 10 19  2  0  0  0  0
 11 16  1  0  0  0  0
 11 25  1  0  0  0  0
 12 15  1  0  0  0  0
 13 15  1  0  0  0  0
 18 45  1  0  0  0  0
 20 26  1  0  0  0  0
 20 30  1  0  0  0  0
 28 29  1  0  0  0  0
 28 33  1  0  0  0  0
 28 34  1  0  0  0  0
 28 35  1  0  0  0  0
 29 30  1  0  0  0  0
 29 36  1  0  0  0  0
 29 37  1  0  0  0  0
 30 31  1  0  0  0  0
 30 38  1  0  0  0  0
 31 32  1  0  0  0  0
 31 39  1  0  0  0  0
 31 40  1  0  0  0  0
 32 33  1  0  0  0  0
 32 41  1  0  0  0  0
 32 42  1  0  0  0  0
 43 44  1  0  0  0  0
 43 48  1  0  0  0  0
 43 49  1  0  0  0  0
 43 57  1  0  0  0  0
 44 45  1  0  0  0  0
 44 50  1  0  0  0  0
 44 51  1  0  0  0  0
 45 46  1  0  0  0  0
 45 52  1  0  0  0  0
 46 47  1  0  0  0  0
 46 53  1  0  0  0  0
 46 54  1  0  0  0  0
 47 55  1  0  0  0  0
 47 56  1  0  0  0  0
 47 57  1  0  0  0  0
 57 58  1  0  0  0  0
 58 59  2  0  0  0  0
 58 60  2  0  0  0  0
 58 61  1  0  0  0  0
 61 62  1  0  0  0  0
 61 63  1  0  0  0  0
 61 64  1  0  0  0  0
M  END
$$$$
