p38a_2l
 OpenBabel02232411163D
Structure written by MMmdl.
 49 52  0  0  0  0  0  0  0  0999 V2000
   38.2920   36.5600   17.1400 C   0  0  0  0  0  0  0  0  0  0  0  0
   34.5480   35.0350   21.1610 C   0  0  0  0  0  0  0  0  0  0  0  0
   37.4940   36.0980   18.1830 C   0  0  0  0  0  0  0  0  0  0  0  0
   34.0130   39.0300   23.8430 C   0  0  0  0  0  0  0  0  0  0  0  0
   34.6790   37.9040   21.4120 C   0  0  0  0  0  0  0  0  0  0  0  0
   35.0690   37.2860   20.1740 C   0  0  0  0  0  0  0  0  0  0  0  0
   37.6590   36.7330   15.9010 C   0  0  0  0  0  0  0  0  0  0  0  0
   36.3120   36.4430   15.6760 C   0  0  0  0  0  0  0  0  0  0  0  0
   35.5350   35.9660   16.7370 C   0  0  0  0  0  0  0  0  0  0  0  0
   34.2870   37.0950   22.5210 C   0  0  0  0  0  0  0  0  0  0  0  0
   34.6820   39.3110   21.6120 C   0  0  0  0  0  0  0  0  0  0  0  0
   35.0300   35.9380   20.0810 C   0  0  0  0  0  0  0  0  0  0  0  0
   36.1320   35.7850   17.9870 C   0  0  0  0  0  0  0  0  0  0  0  0
   38.0120   35.9490   19.3950 F   0  0  0  0  0  0  0  0  0  0  0  0
   35.3930   35.1480   18.9910 O   0  0  0  0  0  0  0  0  0  0  0  0
   34.3690   39.8880   22.7820 N   0  0  0  0  0  0  0  0  0  0  0  0
   34.4200   33.8340   21.0610 O   0  0  0  0  0  0  0  0  0  0  0  0
   34.2010   35.6980   22.3890 N   0  0  0  0  0  0  0  0  0  0  0  0
   33.9650   37.6520   23.7310 N   0  0  0  0  0  0  0  0  0  0  0  0
   33.6710   39.5970   25.0460 N   0  0  0  0  0  0  0  0  0  0  0  0
   39.3460   36.8120   17.2880 H   0  0  0  0  0  0  0  0  0  0  0  0
   35.3920   37.9310   19.3530 H   0  0  0  0  0  0  0  0  0  0  0  0
   35.8540   36.5990   14.6970 H   0  0  0  0  0  0  0  0  0  0  0  0
   34.4720   35.7520   16.5810 H   0  0  0  0  0  0  0  0  0  0  0  0
   34.9470   39.9810   20.7770 H   0  0  0  0  0  0  0  0  0  0  0  0
   33.7360   40.6230   25.1750 H   0  0  0  0  0  0  0  0  0  0  0  0
   38.3710   37.2370   14.8960 F   0  0  0  0  0  0  0  0  0  0  0  0
   33.2190   40.5040   28.1250 C   0  0  0  0  0  0  0  0  0  0  0  0
   32.3920   39.6310   27.1730 C   0  0  0  0  0  0  0  0  0  0  0  0
   33.2480   38.7690   26.2220 C   0  0  0  0  0  0  0  0  0  0  0  0
   34.4570   38.1470   26.9520 C   0  0  0  0  0  0  0  0  0  0  0  0
   35.1870   39.1560   27.8380 C   0  0  0  0  0  0  0  0  0  0  0  0
   34.2740   39.7680   28.7800 O   0  0  0  0  0  0  0  0  0  0  0  0
   32.6000   40.8530   28.9840 H   0  0  0  0  0  0  0  0  0  0  0  0
   33.6750   41.3600   27.5820 H   0  0  0  0  0  0  0  0  0  0  0  0
   31.7190   40.2940   26.5740 H   0  0  0  0  0  0  0  0  0  0  0  0
   31.7470   38.9360   27.7670 H   0  0  0  0  0  0  0  0  0  0  0  0
   32.6000   37.9290   25.8310 H   0  0  0  0  0  0  0  0  0  0  0  0
   34.0740   37.3010   27.5780 H   0  0  0  0  0  0  0  0  0  0  0  0
   35.1720   37.7120   26.2120 H   0  0  0  0  0  0  0  0  0  0  0  0
   35.9170   38.6550   28.5130 H   0  0  0  0  0  0  0  0  0  0  0  0
   35.6650   39.9560   27.2290 H   0  0  0  0  0  0  0  0  0  0  0  0
   33.8680   34.8500   23.5870 C   0  0  0  0  0  0  0  0  0  0  0  0
   33.2090   35.4420   24.2840 H   0  0  0  0  0  0  0  0  0  0  0  0
   33.2920   33.9550   23.2280 H   0  0  0  0  0  0  0  0  0  0  0  0
   35.1300   34.4080   24.3260 C   0  0  0  0  0  0  0  0  0  0  0  0
   35.7150   33.6720   23.7350 H   0  0  0  0  0  0  0  0  0  0  0  0
   35.7720   35.2830   24.5750 H   0  0  0  0  0  0  0  0  0  0  0  0
   34.8290   33.9230   25.2880 H   0  0  0  0  0  0  0  0  0  0  0  0
  1  3  2  0  0  0  0
  1  7  1  0  0  0  0
  1 21  1  0  0  0  0
  2 12  1  0  0  0  0
  2 17  2  0  0  0  0
  2 18  1  0  0  0  0
  3 13  1  0  0  0  0
  3 14  1  0  0  0  0
  4 16  2  0  0  0  0
  4 19  1  0  0  0  0
  4 20  1  0  0  0  0
  5  6  1  0  0  0  0
  5 10  1  0  0  0  0
  5 11  2  0  0  0  0
  6 12  2  0  0  0  0
  6 22  1  0  0  0  0
  7  8  2  0  0  0  0
  7 27  1  0  0  0  0
  8  9  1  0  0  0  0
  8 23  1  0  0  0  0
  9 13  2  0  0  0  0
  9 24  1  0  0  0  0
 10 18  1  0  0  0  0
 10 19  2  0  0  0  0
 11 16  1  0  0  0  0
 11 25  1  0  0  0  0
 12 15  1  0  0  0  0
 13 15  1  0  0  0  0
 18 43  1  0  0  0  0
 20 26  1  0  0  0  0
 20 30  1  0  0  0  0
 28 29  1  0  0  0  0
 28 33  1  0  0  0  0
 28 34  1  0  0  0  0
 28 35  1  0  0  0  0
 29 30  1  0  0  0  0
 29 36  1  0  0  0  0
 29 37  1  0  0  0  0
 30 31  1  0  0  0  0
 30 38  1  0  0  0  0
 31 32  1  0  0  0  0
 31 39  1  0  0  0  0
 31 40  1  0  0  0  0
 32 33  1  0  0  0  0
 32 41  1  0  0  0  0
 32 42  1  0  0  0  0
 43 44  1  0  0  0  0
 43 45  1  0  0  0  0
 43 46  1  0  0  0  0
 46 47  1  0  0  0  0
 46 48  1  0  0  0  0
 46 49  1  0  0  0  0
M  END
$$$$
