p38a_2p
 OpenBabel02232411163D
Structure written by MMmdl.
 58 61  0  0  0  0  0  0  0  0999 V2000
   38.2470   36.5160   17.1740 C   0  0  0  0  0  0  0  0  0  0  0  0
   34.7290   35.1100   21.2960 C   0  0  0  0  0  0  0  0  0  0  0  0
   37.4380   36.0700   18.2150 C   0  0  0  0  0  0  0  0  0  0  0  0
   34.2410   39.1810   23.8500 C   0  0  0  0  0  0  0  0  0  0  0  0
   34.7350   37.9850   21.4160 C   0  0  0  0  0  0  0  0  0  0  0  0
   35.0040   37.3330   20.1630 C   0  0  0  0  0  0  0  0  0  0  0  0
   37.6240   36.6840   15.9290 C   0  0  0  0  0  0  0  0  0  0  0  0
   36.2760   36.4020   15.6980 C   0  0  0  0  0  0  0  0  0  0  0  0
   35.4860   35.9460   16.7590 C   0  0  0  0  0  0  0  0  0  0  0  0
   34.6010   37.2130   22.6080 C   0  0  0  0  0  0  0  0  0  0  0  0
   34.6160   39.3950   21.5450 C   0  0  0  0  0  0  0  0  0  0  0  0
   35.0330   35.9810   20.1290 C   0  0  0  0  0  0  0  0  0  0  0  0
   36.0720   35.7750   18.0160 C   0  0  0  0  0  0  0  0  0  0  0  0
   37.9500   35.9210   19.4300 F   0  0  0  0  0  0  0  0  0  0  0  0
   35.3080   35.1730   19.0260 O   0  0  0  0  0  0  0  0  0  0  0  0
   34.3810   40.0070   22.7160 N   0  0  0  0  0  0  0  0  0  0  0  0
   34.5410   33.9150   21.2570 O   0  0  0  0  0  0  0  0  0  0  0  0
   34.6830   35.8100   22.5570 N   0  0  0  0  0  0  0  0  0  0  0  0
   34.3790   37.8070   23.8240 N   0  0  0  0  0  0  0  0  0  0  0  0
   33.8770   39.7890   25.0290 N   0  0  0  0  0  0  0  0  0  0  0  0
   39.3030   36.7600   17.3280 H   0  0  0  0  0  0  0  0  0  0  0  0
   35.1890   37.9550   19.2850 H   0  0  0  0  0  0  0  0  0  0  0  0
   35.8260   36.5500   14.7140 H   0  0  0  0  0  0  0  0  0  0  0  0
   34.4220   35.7440   16.6000 H   0  0  0  0  0  0  0  0  0  0  0  0
   34.7140   40.0400   20.6550 H   0  0  0  0  0  0  0  0  0  0  0  0
   33.8870   40.8260   25.0970 H   0  0  0  0  0  0  0  0  0  0  0  0
   38.3470   37.1780   14.9270 F   0  0  0  0  0  0  0  0  0  0  0  0
   32.7200   39.1020   28.6020 C   0  0  0  0  0  0  0  0  0  0  0  0
   32.6880   39.6670   27.1760 C   0  0  0  0  0  0  0  0  0  0  0  0
   33.8390   39.0680   26.3370 C   0  0  0  0  0  0  0  0  0  0  0  0
   35.1900   39.2320   27.0690 C   0  0  0  0  0  0  0  0  0  0  0  0
   35.0860   38.6800   28.4950 C   0  0  0  0  0  0  0  0  0  0  0  0
   34.0070   39.3050   29.2280 O   0  0  0  0  0  0  0  0  0  0  0  0
   32.4830   38.0130   28.6020 H   0  0  0  0  0  0  0  0  0  0  0  0
   32.0330   39.6680   29.2730 H   0  0  0  0  0  0  0  0  0  0  0  0
   32.7840   40.7780   27.2150 H   0  0  0  0  0  0  0  0  0  0  0  0
   31.7100   39.4130   26.6990 H   0  0  0  0  0  0  0  0  0  0  0  0
   33.6350   37.9760   26.1560 H   0  0  0  0  0  0  0  0  0  0  0  0
   35.9790   38.6710   26.5150 H   0  0  0  0  0  0  0  0  0  0  0  0
   35.4700   40.3120   27.1000 H   0  0  0  0  0  0  0  0  0  0  0  0
   34.9220   37.5770   28.4810 H   0  0  0  0  0  0  0  0  0  0  0  0
   35.9780   38.9570   29.1020 H   0  0  0  0  0  0  0  0  0  0  0  0
   34.7110   35.0220   23.8320 C   0  0  0  0  0  0  0  0  0  0  0  0
   35.1930   34.0300   23.6240 H   0  0  0  0  0  0  0  0  0  0  0  0
   35.3360   35.5810   24.5850 H   0  0  0  0  0  0  0  0  0  0  0  0
   33.2990   34.8050   24.4170 C   0  0  0  0  0  0  0  0  0  0  0  0
   32.8530   35.8070   24.6450 H   0  0  0  0  0  0  0  0  0  0  0  0
   32.6560   34.2820   23.6690 H   0  0  0  0  0  0  0  0  0  0  0  0
   33.4110   33.9830   25.7050 C   0  0  0  0  0  0  0  0  0  0  0  0
   34.1070   34.5190   26.4140 H   0  0  0  0  0  0  0  0  0  0  0  0
   33.9110   33.0030   25.4790 H   0  0  0  0  0  0  0  0  0  0  0  0
   31.8650   33.7040   26.4940 S   0  0  0  0  0  0  0  0  0  0  0  0
   32.0640   32.9020   27.7340 O   0  0  0  0  0  0  0  0  0  0  0  0
   30.9420   32.9820   25.5820 O   0  0  0  0  0  0  0  0  0  0  0  0
   31.2440   35.2770   26.8830 C   0  0  0  0  0  0  0  0  0  0  0  0
   30.9100   35.8520   25.9810 H   0  0  0  0  0  0  0  0  0  0  0  0
   30.3530   35.2420   27.5660 H   0  0  0  0  0  0  0  0  0  0  0  0
   32.0100   35.9130   27.3970 H   0  0  0  0  0  0  0  0  0  0  0  0
  1  3  2  0  0  0  0
  1  7  1  0  0  0  0
  1 21  1  0  0  0  0
  2 12  1  0  0  0  0
  2 17  2  0  0  0  0
  2 18  1  0  0  0  0
  3 13  1  0  0  0  0
  3 14  1  0  0  0  0
  4 16  2  0  0  0  0
  4 19  1  0  0  0  0
  4 20  1  0  0  0  0
  5  6  1  0  0  0  0
  5 10  1  0  0  0  0
  5 11  2  0  0  0  0
  6 12  2  0  0  0  0
  6 22  1  0  0  0  0
  7  8  2  0  0  0  0
  7 27  1  0  0  0  0
  8  9  1  0  0  0  0
  8 23  1  0  0  0  0
  9 13  2  0  0  0  0
  9 24  1  0  0  0  0
 10 18  1  0  0  0  0
 10 19  2  0  0  0  0
 11 16  1  0  0  0  0
 11 25  1  0  0  0  0
 12 15  1  0  0  0  0
 13 15  1  0  0  0  0
 18 43  1  0  0  0  0
 20 26  1  0  0  0  0
 20 30  1  0  0  0  0
 28 29  1  0  0  0  0
 28 33  1  0  0  0  0
 28 34  1  0  0  0  0
 28 35  1  0  0  0  0
 29 30  1  0  0  0  0
 29 36  1  0  0  0  0
 29 37  1  0  0  0  0
 30 31  1  0  0  0  0
 30 38  1  0  0  0  0
 31 32  1  0  0  0  0
 31 39  1  0  0  0  0
 31 40  1  0  0  0  0
 32 33  1  0  0  0  0
 32 41  1  0  0  0  0
 32 42  1  0  0  0  0
 43 44  1  0  0  0  0
 43 45  1  0  0  0  0
 43 46  1  0  0  0  0
 46 47  1  0  0  0  0
 46 48  1  0  0  0  0
 46 49  1  0  0  0  0
 49 50  1  0  0  0  0
 49 51  1  0  0  0  0
 49 52  1  0  0  0  0
 52 53  2  0  0  0  0
 52 54  2  0  0  0  0
 52 55  1  0  0  0  0
 55 56  1  0  0  0  0
 55 57  1  0  0  0  0
 55 58  1  0  0  0  0
M  END
$$$$
