ejm_44
                    3D
 Schrodinger Suite 2022-3.
 41 42  0  0  1  0  0  0  0  0999 V2000
   -3.2260   22.6370  -29.5870 C   0  0  0  0  0  0  0  0  0  0  0  0
   -3.7070   21.5580  -28.8280 C   0  0  0  0  0  0  0  0  0  0  0  0
   -2.9060   20.9060  -27.8880 C   0  0  0  0  0  0  0  0  0  0  0  0
   -5.1550   25.4170  -31.3510 C   0  0  0  0  0  0  0  0  0  0  0  0
   -4.0990   23.2190  -30.6620 C   0  0  0  0  0  0  0  0  0  0  0  0
   -5.8570   24.9370  -32.4670 C   0  0  0  0  0  0  0  0  0  0  0  0
   -6.6420   25.8410  -33.1970 C   0  0  0  0  0  0  0  0  0  0  0  0
   -1.9140   23.0630  -29.3440 C   0  0  0  0  0  0  0  0  0  0  0  0
   -1.5900   21.3350  -27.6930 C   0  0  0  0  0  0  0  0  0  0  0  0
   -1.0910   22.4230  -28.4150 C   0  0  0  0  0  0  0  0  0  0  0  0
   -5.3200   21.0250  -29.0610 Cl  0  0  0  0  0  0  0  0  0  0  0  0
   -4.5490   22.5460  -31.5630 O   0  0  0  0  0  0  0  0  0  0  0  0
   -4.3560   24.5960  -30.5030 N   0  0  0  0  0  0  0  0  0  0  0  0
   -6.7520   27.1590  -32.8940 N   0  0  0  0  0  0  0  0  0  0  0  0
   -6.0450   27.6230  -31.7980 C   0  0  0  0  0  0  0  0  0  0  0  0
   -5.2420   26.7830  -31.0120 C   0  0  0  0  0  0  0  0  0  0  0  0
   -6.1980   29.0160  -31.5440 N   0  0  0  0  0  0  0  0  0  0  0  0
   -5.4520   29.7610  -30.5920 C   0  0  0  0  0  0  0  0  0  0  0  0
   -4.7150   29.1820  -29.8130 O   0  0  0  0  0  0  0  0  0  0  0  0
   -5.5660   31.3100  -30.6060 C   0  0  0  0  0  0  0  0  0  0  0  0
   -1.2720   24.4150  -30.1850 Cl  0  0  0  0  0  0  0  0  0  0  0  0
   -3.2860   20.0660  -27.3010 H   0  0  0  0  0  0  0  0  0  0  0  0
   -5.8200   23.8860  -32.7680 H   0  0  0  0  0  0  0  0  0  0  0  0
   -7.2160   25.4910  -34.0720 H   0  0  0  0  0  0  0  0  0  0  0  0
   -0.9480   20.8220  -26.9690 H   0  0  0  0  0  0  0  0  0  0  0  0
   -0.0660   22.7630  -28.2380 H   0  0  0  0  0  0  0  0  0  0  0  0
   -3.9100   25.0750  -29.7000 H   0  0  0  0  0  0  0  0  0  0  0  0
   -4.6830   27.1790  -30.1550 H   0  0  0  0  0  0  0  0  0  0  0  0
   -6.9530   29.4830  -32.0830 H   0  0  0  0  0  0  0  0  0  0  0  0
   -6.8890   31.7990  -31.1950 C   0  0  0  0  0  0  0  0  0  0  0  0
   -7.0070   32.8930  -30.9960 H   0  0  0  0  0  0  0  0  0  0  0  0
   -6.9300   31.6690  -32.2950 H   0  0  0  0  0  0  0  0  0  0  0  0
   -7.7510   31.2760  -30.7420 H   0  0  0  0  0  0  0  0  0  0  0  0
   -5.4320   31.8090  -29.1560 C   0  0  0  0  0  0  0  0  0  0  0  0
   -5.2160   32.9060  -29.1610 H   0  0  0  0  0  0  0  0  0  0  0  0
   -6.3720   31.6570  -28.5860 H   0  0  0  0  0  0  0  0  0  0  0  0
   -4.5930   31.2990  -28.6300 H   0  0  0  0  0  0  0  0  0  0  0  0
   -4.3780   31.8090  -31.4480 C   0  0  0  0  0  0  0  0  0  0  0  0
   -4.4110   32.9240  -31.4950 H   0  0  0  0  0  0  0  0  0  0  0  0
   -3.4100   31.5120  -30.9820 H   0  0  0  0  0  0  0  0  0  0  0  0
   -4.4290   31.4090  -32.4790 H   0  0  0  0  0  0  0  0  0  0  0  0
  1  2  2  0  0  0  0
  1  5  1  0  0  0  0
  1  8  1  0  0  0  0
  2  3  1  0  0  0  0
  2 11  1  0  0  0  0
  3  9  2  0  0  0  0
  3 22  1  0  0  0  0
  4  6  1  0  0  0  0
  4 13  1  0  0  0  0
  4 16  2  0  0  0  0
  5 12  2  0  0  0  0
  5 13  1  0  0  0  0
  6  7  2  0  0  0  0
  6 23  1  0  0  0  0
  7 14  1  0  0  0  0
  7 24  1  0  0  0  0
  8 10  2  0  0  0  0
  8 21  1  0  0  0  0
  9 10  1  0  0  0  0
  9 25  1  0  0  0  0
 10 26  1  0  0  0  0
 13 27  1  0  0  0  0
 14 15  2  0  0  0  0
 15 16  1  0  0  0  0
 15 17  1  0  0  0  0
 16 28  1  0  0  0  0
 17 18  1  0  0  0  0
 17 29  1  0  0  0  0
 18 19  2  0  0  0  0
 18 20  1  0  0  0  0
 20 30  1  0  0  0  0
 20 34  1  0  0  0  0
 20 38  1  0  0  0  0
 30 31  1  0  0  0  0
 30 32  1  0  0  0  0
 30 33  1  0  0  0  0
 34 35  1  0  0  0  0
 34 36  1  0  0  0  0
 34 37  1  0  0  0  0
 38 39  1  0  0  0  0
 38 40  1  0  0  0  0
 38 41  1  0  0  0  0
M  END
$$$$
