18652-1
 OpenBabel02232411163D
Structure written by MMmdl.
 55 56  0  0  0  0  0  0  0  0999 V2000
   23.2150   10.5130   28.9630 C   0  0  0  0  0  0  0  0  0  0  0  0
   23.5760   10.9580   30.3700 C   0  0  0  0  0  0  0  0  0  0  0  0
   24.0940   12.3890   30.4370 C   0  0  0  0  0  0  0  0  0  0  0  0
   22.3280   11.0610   31.1980 O   0  0  0  0  0  0  0  0  0  0  0  0
   21.6910    9.9450   31.5960 C   0  0  0  0  0  0  0  0  0  0  0  0
   22.1640    8.7310   31.2220 N   0  0  0  0  0  0  0  0  0  0  0  0
   21.4160    7.6190   31.5650 C   0  0  0  0  0  0  0  0  0  0  0  0
   20.2480    7.6980   32.3180 C   0  0  0  0  0  0  0  0  0  0  0  0
   19.7740    8.9700   32.7370 C   0  0  0  0  0  0  0  0  0  0  0  0
   18.6070    9.0490   33.4570 N   0  0  0  0  0  0  0  0  0  0  0  0
   20.5100   10.1430   32.3770 C   0  0  0  0  0  0  0  0  0  0  0  0
   20.1210   11.4570   32.7160 C   0  0  0  0  0  0  0  0  0  0  0  0
   19.8470   12.5570   32.9620 N   0  0  0  0  0  0  0  0  0  0  0  0
   21.9600    6.4220   31.0340 N   0  0  0  0  0  0  0  0  0  0  0  0
   21.2680    5.1980   30.9170 C   0  0  0  0  0  0  0  0  0  0  0  0
   20.1820    5.0070   31.4220 O   0  0  0  0  0  0  0  0  0  0  0  0
   21.9560    4.1740   30.0280 C   0  0  0  0  0  0  0  0  0  0  0  0
   23.3210    3.7370   30.4680 C   0  0  0  0  0  0  0  0  0  0  0  0
   24.4780    4.4390   30.0190 C   0  0  0  0  0  0  0  0  0  0  0  0
   24.1650    5.5730   29.2760 O   0  0  0  0  0  0  0  0  0  0  0  0
   25.2110    6.5680   29.1070 C   0  0  0  0  0  0  0  0  0  0  0  0
   25.7610    3.9620   30.2650 C   0  0  0  0  0  0  0  0  0  0  0  0
   25.9500    2.7910   31.0230 C   0  0  0  0  0  0  0  0  0  0  0  0
   27.5860    2.1760   31.1880 S   0  0  0  0  0  0  0  0  0  0  0  0
   27.7320    1.5090   32.5030 O   0  0  0  0  0  0  0  0  0  0  0  0
   28.5660    3.2820   31.0520 O   0  0  0  0  0  0  0  0  0  0  0  0
   27.7390    1.0480   29.8800 C   0  0  0  0  0  0  0  0  0  0  0  0
   24.8160    2.1470   31.5380 C   0  0  0  0  0  0  0  0  0  0  0  0
   23.5070    2.6020   31.2400 C   0  0  0  0  0  0  0  0  0  0  0  0
   25.0720    1.0810   32.3650 O   0  0  0  0  0  0  0  0  0  0  0  0
   23.9840    0.1520   32.6380 C   0  0  0  0  0  0  0  0  0  0  0  0
   22.8270    9.4690   28.9560 H   0  0  0  0  0  0  0  0  0  0  0  0
   22.4530   11.1840   28.5080 H   0  0  0  0  0  0  0  0  0  0  0  0
   24.1290   10.5470   28.3210 H   0  0  0  0  0  0  0  0  0  0  0  0
   24.2550   10.2350   30.8780 H   0  0  0  0  0  0  0  0  0  0  0  0
   24.3960   12.6610   31.4700 H   0  0  0  0  0  0  0  0  0  0  0  0
   24.9850   12.4810   29.7670 H   0  0  0  0  0  0  0  0  0  0  0  0
   23.3220   13.1120   30.0850 H   0  0  0  0  0  0  0  0  0  0  0  0
   19.6780    6.8030   32.5720 H   0  0  0  0  0  0  0  0  0  0  0  0
   18.0950    8.1920   33.7400 H   0  0  0  0  0  0  0  0  0  0  0  0
   18.2170    9.9470   33.7430 H   0  0  0  0  0  0  0  0  0  0  0  0
   22.8780    6.5160   30.5390 H   0  0  0  0  0  0  0  0  0  0  0  0
   21.2940    3.2700   29.9560 H   0  0  0  0  0  0  0  0  0  0  0  0
   22.0390    4.6350   29.0020 H   0  0  0  0  0  0  0  0  0  0  0  0
   25.9410    6.2020   28.3550 H   0  0  0  0  0  0  0  0  0  0  0  0
   24.6300    7.4390   28.7270 H   0  0  0  0  0  0  0  0  0  0  0  0
   25.6920    6.8000   30.0810 H   0  0  0  0  0  0  0  0  0  0  0  0
   26.6250    4.4920   29.8440 H   0  0  0  0  0  0  0  0  0  0  0  0
   27.6500    1.5510   28.8800 H   0  0  0  0  0  0  0  0  0  0  0  0
   28.7270    0.5170   29.8790 H   0  0  0  0  0  0  0  0  0  0  0  0
   26.9470    0.2550   29.9000 H   0  0  0  0  0  0  0  0  0  0  0  0
   22.6400    2.0470   31.6030 H   0  0  0  0  0  0  0  0  0  0  0  0
   23.2070    0.6370   33.2670 H   0  0  0  0  0  0  0  0  0  0  0  0
   23.5780   -0.2420   31.6820 H   0  0  0  0  0  0  0  0  0  0  0  0
   24.5130   -0.6510   33.2060 H   0  0  0  0  0  0  0  0  0  0  0  0
  1  2  1  0  0  0  0
  1 32  1  0  0  0  0
  1 33  1  0  0  0  0
  1 34  1  0  0  0  0
  2  3  1  0  0  0  0
  2  4  1  0  0  0  0
  2 35  1  0  0  0  0
  3 36  1  0  0  0  0
  3 37  1  0  0  0  0
  3 38  1  0  0  0  0
  4  5  1  0  0  0  0
  5 11  2  0  0  0  0
  5  6  1  0  0  0  0
  6  7  2  0  0  0  0
  7  8  1  0  0  0  0
  7 14  1  0  0  0  0
  8  9  2  0  0  0  0
  8 39  1  0  0  0  0
  9 10  1  0  0  0  0
  9 11  1  0  0  0  0
 10 40  1  0  0  0  0
 10 41  1  0  0  0  0
 11 12  1  0  0  0  0
 12 13  3  0  0  0  0
 14 15  1  0  0  0  0
 14 42  1  0  0  0  0
 15 16  2  0  0  0  0
 15 17  1  0  0  0  0
 17 18  1  0  0  0  0
 17 43  1  0  0  0  0
 17 44  1  0  0  0  0
 18 29  2  0  0  0  0
 18 19  1  0  0  0  0
 19 20  1  0  0  0  0
 19 22  2  0  0  0  0
 20 21  1  0  0  0  0
 21 45  1  0  0  0  0
 21 46  1  0  0  0  0
 21 47  1  0  0  0  0
 22 23  1  0  0  0  0
 22 48  1  0  0  0  0
 23 24  1  0  0  0  0
 23 28  2  0  0  0  0
 24 25  2  0  0  0  0
 24 26  2  0  0  0  0
 24 27  1  0  0  0  0
 27 49  1  0  0  0  0
 27 50  1  0  0  0  0
 27 51  1  0  0  0  0
 28 29  1  0  0  0  0
 28 30  1  0  0  0  0
 29 52  1  0  0  0  0
 30 31  1  0  0  0  0
 31 53  1  0  0  0  0
 31 54  1  0  0  0  0
 31 55  1  0  0  0  0
M  END
$$$$
