CAT-13d
 OpenBabel02232411143D
Structure written by MMmdl.
 43 46  0  0  1  0  0  0  0  0999 V2000
   11.6330   -2.3240    1.2460 C   0  0  0  0  0  0  0  0  0  0  0  0
   12.9820   -2.3380    0.6430 N   0  0  0  0  0  0  0  0  0  0  0  0
   14.1660   -2.3350    1.3730 C   0  0  0  0  0  0  0  0  0  0  0  0
   14.3040   -2.4330    2.7260 N   0  0  0  0  0  0  0  0  0  0  0  0
   15.2630   -2.2830    0.5020 N   0  3  0  0  0  0  0  0  0  0  0  0
   14.8210   -2.6190   -0.9040 C   0  0  1  0  0  0  0  0  0  0  0  0
   15.4250   -1.6150   -1.8620 C   0  0  0  0  0  0  0  0  0  0  0  0
   16.2840   -2.0180   -2.8910 C   0  0  0  0  0  0  0  0  0  0  0  0
   16.7680   -1.0670   -3.7940 C   0  0  0  0  0  0  0  0  0  0  0  0
   16.4260    0.2800   -3.6620 C   0  0  0  0  0  0  0  0  0  0  0  0
   15.6170    0.7020   -2.5940 C   0  0  0  0  0  0  0  0  0  0  0  0
   15.3130    2.1350   -2.3760 C   0  0  0  0  0  0  0  0  0  0  0  0
   15.4630    2.6830   -1.0910 C   0  0  0  0  0  0  0  0  0  0  0  0
   15.1160    4.0130   -0.8410 C   0  0  0  0  0  0  0  0  0  0  0  0
   14.6370    4.8200   -1.8760 C   0  0  0  0  0  0  0  0  0  0  0  0
   14.5450    4.2780   -3.1620 C   0  0  0  0  0  0  0  0  0  0  0  0
   14.0150    5.2860   -4.4490 Cl  0  0  0  0  0  0  0  0  0  0  0  0
   14.8660    2.9450   -3.4310 C   0  0  0  0  0  0  0  0  0  0  0  0
   15.1030   -0.2570   -1.7080 C   0  0  0  0  0  0  0  0  0  0  0  0
   15.0290   -4.0840   -1.2560 C   0  0  0  0  0  0  0  0  0  0  0  0
   16.2320   -4.8500   -0.7340 C   0  0  0  0  0  0  0  0  0  0  0  0
   14.8540   -5.1740   -0.2040 C   0  0  0  0  0  0  0  0  0  0  0  0
   13.2690   -2.4310   -0.8060 C   0  0  0  0  0  0  0  0  0  0  0  0
   12.4100   -2.3730   -1.6250 O   0  0  0  0  0  0  0  0  0  0  0  0
   10.9800   -3.0610    0.7030 H   0  0  0  0  0  0  0  0  0  0  0  0
   11.6760   -2.6230    2.3270 H   0  0  0  0  0  0  0  0  0  0  0  0
   11.1990   -1.2930    1.1600 H   0  0  0  0  0  0  0  0  0  0  0  0
   13.5830   -2.0480    3.3850 H   0  0  0  0  0  0  0  0  0  0  0  0
   16.1910   -2.6290    0.8700 H   0  0  0  0  0  0  0  0  0  0  0  0
   16.5810   -3.0650   -2.9860 H   0  0  0  0  0  0  0  0  0  0  0  0
   17.4290   -1.3810   -4.6080 H   0  0  0  0  0  0  0  0  0  0  0  0
   16.7990    1.0050   -4.3930 H   0  0  0  0  0  0  0  0  0  0  0  0
   15.8440    2.0610   -0.2780 H   0  0  0  0  0  0  0  0  0  0  0  0
   15.2140    4.4120    0.1730 H   0  0  0  0  0  0  0  0  0  0  0  0
   14.3210    5.8460   -1.6740 H   0  0  0  0  0  0  0  0  0  0  0  0
   14.7620    2.5350   -4.4400 H   0  0  0  0  0  0  0  0  0  0  0  0
   14.4580    0.0510   -0.8850 H   0  0  0  0  0  0  0  0  0  0  0  0
   14.6840   -4.3130   -2.2810 H   0  0  0  0  0  0  0  0  0  0  0  0
   16.7480   -5.5380   -1.4010 H   0  0  0  0  0  0  0  0  0  0  0  0
   16.9490   -4.3410   -0.0870 H   0  0  0  0  0  0  0  0  0  0  0  0
   14.6090   -4.8990    0.8290 H   0  0  0  0  0  0  0  0  0  0  0  0
   14.3600   -6.1090   -0.5050 H   0  0  0  0  0  0  0  0  0  0  0  0
   15.2810   -2.3680    3.1330 H   0  0  0  0  0  0  0  0  0  0  0  0
  1  2  1  0  0  0  0
  1 25  1  0  0  0  0
  1 26  1  0  0  0  0
  1 27  1  0  0  0  0
  2  3  1  0  0  0  0
  2 23  1  0  0  0  0
  3  4  1  0  0  0  0
  3  5  2  0  0  0  0
  4 28  1  0  0  0  0
  4 43  1  0  0  0  0
  5  6  1  0  0  0  0
  5 29  1  0  0  0  0
  6  7  1  6  0  0  0
  6 20  1  0  0  0  0
  6 23  1  0  0  0  0
  7  8  2  0  0  0  0
  7 19  1  0  0  0  0
  8  9  1  0  0  0  0
  8 30  1  0  0  0  0
  9 10  2  0  0  0  0
  9 31  1  0  0  0  0
 10 11  1  0  0  0  0
 10 32  1  0  0  0  0
 11 12  1  0  0  0  0
 11 19  2  0  0  0  0
 12 13  2  0  0  0  0
 12 18  1  0  0  0  0
 13 14  1  0  0  0  0
 13 33  1  0  0  0  0
 14 15  2  0  0  0  0
 14 34  1  0  0  0  0
 15 16  1  0  0  0  0
 15 35  1  0  0  0  0
 16 18  2  0  0  0  0
 16 17  1  0  0  0  0
 18 36  1  0  0  0  0
 19 37  1  0  0  0  0
 20 21  1  0  0  0  0
 20 22  1  0  0  0  0
 20 38  1  0  0  0  0
 21 22  1  0  0  0  0
 21 39  1  0  0  0  0
 21 40  1  0  0  0  0
 22 41  1  0  0  0  0
 22 42  1  0  0  0  0
 23 24  2  0  0  0  0
M  CHG  1   5   1
M  END
$$$$
