p38a_2ee
 OpenBabel02232411163D
Structure written by MMmdl.
 52 55  0  0  0  0  0  0  0  0999 V2000
   38.3080   36.5730   17.1170 C   0  0  0  0  0  0  0  0  0  0  0  0
   34.4340   35.0140   21.0690 C   0  0  0  0  0  0  0  0  0  0  0  0
   37.5160   36.1000   18.1600 C   0  0  0  0  0  0  0  0  0  0  0  0
   33.8160   38.9930   23.7530 C   0  0  0  0  0  0  0  0  0  0  0  0
   34.6050   37.8800   21.3530 C   0  0  0  0  0  0  0  0  0  0  0  0
   35.0680   37.2620   20.1400 C   0  0  0  0  0  0  0  0  0  0  0  0
   37.6700   36.7480   15.8810 C   0  0  0  0  0  0  0  0  0  0  0  0
   36.3230   36.4530   15.6590 C   0  0  0  0  0  0  0  0  0  0  0  0
   35.5530   35.9620   16.7190 C   0  0  0  0  0  0  0  0  0  0  0  0
   34.0790   37.0770   22.4070 C   0  0  0  0  0  0  0  0  0  0  0  0
   34.6610   39.2810   21.5820 C   0  0  0  0  0  0  0  0  0  0  0  0
   35.0070   35.9140   20.0340 C   0  0  0  0  0  0  0  0  0  0  0  0
   36.1570   35.7750   17.9650 C   0  0  0  0  0  0  0  0  0  0  0  0
   33.3790   34.8810   23.3590 C   0  0  0  0  0  0  0  0  0  0  0  0
   38.0360   35.9510   19.3710 F   0  0  0  0  0  0  0  0  0  0  0  0
   35.4340   35.1210   18.9700 O   0  0  0  0  0  0  0  0  0  0  0  0
   34.2940   39.8500   22.7400 N   0  0  0  0  0  0  0  0  0  0  0  0
   34.3420   33.8080   20.9790 O   0  0  0  0  0  0  0  0  0  0  0  0
   33.9720   35.6850   22.2520 N   0  0  0  0  0  0  0  0  0  0  0  0
   33.6770   37.6250   23.5990 N   0  0  0  0  0  0  0  0  0  0  0  0
   33.4850   39.5540   24.9620 N   0  0  0  0  0  0  0  0  0  0  0  0
   39.3600   36.8310   17.2650 H   0  0  0  0  0  0  0  0  0  0  0  0
   35.4610   37.9050   19.3500 H   0  0  0  0  0  0  0  0  0  0  0  0
   35.8600   36.6140   14.6840 H   0  0  0  0  0  0  0  0  0  0  0  0
   34.4910   35.7430   16.5660 H   0  0  0  0  0  0  0  0  0  0  0  0
   35.0150   39.9540   20.7830 H   0  0  0  0  0  0  0  0  0  0  0  0
   34.0030   34.9870   24.2870 H   0  0  0  0  0  0  0  0  0  0  0  0
   32.3420   35.2510   23.5860 H   0  0  0  0  0  0  0  0  0  0  0  0
   33.3260   33.8010   23.0690 H   0  0  0  0  0  0  0  0  0  0  0  0
   33.5770   40.5780   25.0980 H   0  0  0  0  0  0  0  0  0  0  0  0
   38.3750   37.2600   14.8760 F   0  0  0  0  0  0  0  0  0  0  0  0
   33.1840   40.4160   28.0050 C   0  0  0  0  0  0  0  0  0  0  0  0
   32.1660   39.7680   27.0450 C   0  0  0  0  0  0  0  0  0  0  0  0
   32.8100   38.7770   26.0530 C   0  0  0  0  0  0  0  0  0  0  0  0
   33.7800   37.8160   26.7730 C   0  0  0  0  0  0  0  0  0  0  0  0
   34.7570   38.5360   27.7150 C   0  0  0  0  0  0  0  0  0  0  0  0
   34.0460   39.4170   28.6900 N   0  0  0  0  0  0  0  0  0  0  0  0
   32.6320   41.0460   28.7460 H   0  0  0  0  0  0  0  0  0  0  0  0
   33.8630   41.0940   27.4200 H   0  0  0  0  0  0  0  0  0  0  0  0
   31.6520   40.5810   26.4770 H   0  0  0  0  0  0  0  0  0  0  0  0
   31.3930   39.2170   27.6330 H   0  0  0  0  0  0  0  0  0  0  0  0
   31.9860   38.1650   25.5810 H   0  0  0  0  0  0  0  0  0  0  0  0
   33.1570   37.0840   27.3450 H   0  0  0  0  0  0  0  0  0  0  0  0
   34.3670   37.2330   26.0200 H   0  0  0  0  0  0  0  0  0  0  0  0
   35.3630   37.7780   28.2730 H   0  0  0  0  0  0  0  0  0  0  0  0
   35.4410   39.1960   27.1160 H   0  0  0  0  0  0  0  0  0  0  0  0
   33.7430   38.9300   29.9820 C   0  0  0  0  0  0  0  0  0  0  0  0
   34.3340   37.9350   30.3940 O   0  0  0  0  0  0  0  0  0  0  0  0
   32.8100   39.7180   30.8520 C   0  0  0  0  0  0  0  0  0  0  0  0
   31.7610   39.6860   30.4580 H   0  0  0  0  0  0  0  0  0  0  0  0
   32.7900   39.3080   31.8940 H   0  0  0  0  0  0  0  0  0  0  0  0
   33.1140   40.7950   30.9270 H   0  0  0  0  0  0  0  0  0  0  0  0
  1  3  2  0  0  0  0
  1  7  1  0  0  0  0
  1 22  1  0  0  0  0
  2 12  1  0  0  0  0
  2 18  2  0  0  0  0
  2 19  1  0  0  0  0
  3 13  1  0  0  0  0
  3 15  1  0  0  0  0
  4 17  2  0  0  0  0
  4 20  1  0  0  0  0
  4 21  1  0  0  0  0
  5  6  1  0  0  0  0
  5 10  1  0  0  0  0
  5 11  2  0  0  0  0
  6 12  2  0  0  0  0
  6 23  1  0  0  0  0
  7  8  2  0  0  0  0
  7 31  1  0  0  0  0
  8  9  1  0  0  0  0
  8 24  1  0  0  0  0
  9 13  2  0  0  0  0
  9 25  1  0  0  0  0
 10 19  1  0  0  0  0
 10 20  2  0  0  0  0
 11 17  1  0  0  0  0
 11 26  1  0  0  0  0
 12 16  1  0  0  0  0
 13 16  1  0  0  0  0
 14 19  1  0  0  0  0
 14 27  1  0  0  0  0
 14 28  1  0  0  0  0
 14 29  1  0  0  0  0
 21 30  1  0  0  0  0
 21 34  1  0  0  0  0
 32 33  1  0  0  0  0
 32 37  1  0  0  0  0
 32 38  1  0  0  0  0
 32 39  1  0  0  0  0
 33 34  1  0  0  0  0
 33 40  1  0  0  0  0
 33 41  1  0  0  0  0
 34 35  1  0  0  0  0
 34 42  1  0  0  0  0
 35 36  1  0  0  0  0
 35 43  1  0  0  0  0
 35 44  1  0  0  0  0
 36 37  1  0  0  0  0
 36 45  1  0  0  0  0
 36 46  1  0  0  0  0
 37 47  1  0  0  0  0
 47 48  2  0  0  0  0
 47 49  1  0  0  0  0
 49 50  1  0  0  0  0
 49 51  1  0  0  0  0
 49 52  1  0  0  0  0
M  END
$$$$
