CAT-13e
 OpenBabel02232411143D
Structure written by MMmdl.
 46 49  0  0  1  0  0  0  0  0999 V2000
   11.6720   -2.1830    1.1670 C   0  0  0  0  0  0  0  0  0  0  0  0
   12.9910   -2.2450    0.5050 N   0  0  0  0  0  0  0  0  0  0  0  0
   14.2040   -2.2220    1.1900 C   0  0  0  0  0  0  0  0  0  0  0  0
   14.3680   -2.3230    2.5410 N   0  0  0  0  0  0  0  0  0  0  0  0
   15.2670   -2.1410    0.2760 N   0  3  0  0  0  0  0  0  0  0  0  0
   14.7670   -2.4270   -1.1280 C   0  0  1  0  0  0  0  0  0  0  0  0
   15.2330   -1.3460   -2.0900 C   0  0  0  0  0  0  0  0  0  0  0  0
   15.7170   -1.6390   -3.3720 C   0  0  0  0  0  0  0  0  0  0  0  0
   16.1190   -0.5980   -4.2150 C   0  0  0  0  0  0  0  0  0  0  0  0
   16.0260    0.7350   -3.8080 C   0  0  0  0  0  0  0  0  0  0  0  0
   15.5190    1.0440   -2.5340 C   0  0  0  0  0  0  0  0  0  0  0  0
   15.3410    2.4370   -2.0640 C   0  0  0  0  0  0  0  0  0  0  0  0
   14.8920    3.4440   -2.9330 C   0  0  0  0  0  0  0  0  0  0  0  0
   14.6060    4.7240   -2.4440 C   0  0  0  0  0  0  0  0  0  0  0  0
   14.7460    5.0130   -1.0830 C   0  0  0  0  0  0  0  0  0  0  0  0
   15.2000    4.0040   -0.2310 C   0  0  0  0  0  0  0  0  0  0  0  0
   15.2770    4.2880    1.4700 Cl  0  0  0  0  0  0  0  0  0  0  0  0
   15.5380    2.7380   -0.7050 C   0  0  0  0  0  0  0  0  0  0  0  0
   15.1270   -0.0070   -1.6900 C   0  0  0  0  0  0  0  0  0  0  0  0
   15.0910   -3.8640   -1.5640 C   0  0  0  0  0  0  0  0  0  0  0  0
   16.6100   -4.1370   -1.7240 C   0  0  0  0  0  0  0  0  0  0  0  0
   16.5300   -5.1970   -0.6050 C   0  0  0  0  0  0  0  0  0  0  0  0
   15.0070   -4.9670   -0.4690 C   0  0  0  0  0  0  0  0  0  0  0  0
   13.2200   -2.3130   -0.9510 C   0  0  0  0  0  0  0  0  0  0  0  0
   12.3240   -2.2760   -1.7330 O   0  0  0  0  0  0  0  0  0  0  0  0
   10.9390   -2.8060    0.5850 H   0  0  0  0  0  0  0  0  0  0  0  0
   11.3240   -1.1180    1.2020 H   0  0  0  0  0  0  0  0  0  0  0  0
   11.7340   -2.5930    2.2100 H   0  0  0  0  0  0  0  0  0  0  0  0
   13.6510   -1.9640    3.2180 H   0  0  0  0  0  0  0  0  0  0  0  0
   16.2020   -2.5140    0.6010 H   0  0  0  0  0  0  0  0  0  0  0  0
   15.7870   -2.6670   -3.7310 H   0  0  0  0  0  0  0  0  0  0  0  0
   16.5190   -0.8350   -5.2080 H   0  0  0  0  0  0  0  0  0  0  0  0
   16.3500    1.5260   -4.4910 H   0  0  0  0  0  0  0  0  0  0  0  0
   14.7400    3.2290   -3.9960 H   0  0  0  0  0  0  0  0  0  0  0  0
   14.2420    5.4940   -3.1340 H   0  0  0  0  0  0  0  0  0  0  0  0
   14.4870    5.9980   -0.6950 H   0  0  0  0  0  0  0  0  0  0  0  0
   15.9290    1.9770   -0.0260 H   0  0  0  0  0  0  0  0  0  0  0  0
   14.7320    0.2080   -0.7030 H   0  0  0  0  0  0  0  0  0  0  0  0
   14.4990   -4.1280   -2.4660 H   0  0  0  0  0  0  0  0  0  0  0  0
   17.2530   -3.2760   -1.4600 H   0  0  0  0  0  0  0  0  0  0  0  0
   16.8890   -4.5370   -2.7070 H   0  0  0  0  0  0  0  0  0  0  0  0
   16.8170   -6.2180   -0.8790 H   0  0  0  0  0  0  0  0  0  0  0  0
   17.1030   -4.8580    0.2640 H   0  0  0  0  0  0  0  0  0  0  0  0
   14.6940   -4.6400    0.5350 H   0  0  0  0  0  0  0  0  0  0  0  0
   14.3860   -5.8270   -0.7780 H   0  0  0  0  0  0  0  0  0  0  0  0
   15.3470   -2.3100    2.9410 H   0  0  0  0  0  0  0  0  0  0  0  0
  1  2  1  0  0  0  0
  1 26  1  0  0  0  0
  1 27  1  0  0  0  0
  1 28  1  0  0  0  0
  2  3  1  0  0  0  0
  2 24  1  0  0  0  0
  3  4  1  0  0  0  0
  3  5  2  0  0  0  0
  4 29  1  0  0  0  0
  4 46  1  0  0  0  0
  5  6  1  0  0  0  0
  5 30  1  0  0  0  0
  6  7  1  6  0  0  0
  6 20  1  0  0  0  0
  6 24  1  0  0  0  0
  7  8  2  0  0  0  0
  7 19  1  0  0  0  0
  8  9  1  0  0  0  0
  8 31  1  0  0  0  0
  9 10  2  0  0  0  0
  9 32  1  0  0  0  0
 10 11  1  0  0  0  0
 10 33  1  0  0  0  0
 11 12  1  0  0  0  0
 11 19  2  0  0  0  0
 12 13  2  0  0  0  0
 12 18  1  0  0  0  0
 13 14  1  0  0  0  0
 13 34  1  0  0  0  0
 14 15  2  0  0  0  0
 14 35  1  0  0  0  0
 15 16  1  0  0  0  0
 15 36  1  0  0  0  0
 16 17  1  0  0  0  0
 16 18  2  0  0  0  0
 18 37  1  0  0  0  0
 19 38  1  0  0  0  0
 20 21  1  0  0  0  0
 20 23  1  0  0  0  0
 20 39  1  0  0  0  0
 21 22  1  0  0  0  0
 21 40  1  0  0  0  0
 21 41  1  0  0  0  0
 22 23  1  0  0  0  0
 22 42  1  0  0  0  0
 22 43  1  0  0  0  0
 23 44  1  0  0  0  0
 23 45  1  0  0  0  0
 24 25  2  0  0  0  0
M  CHG  1   5   1
M  END
$$$$
