41
                    3D
 Schrodinger Suite 2022-3.
 49 52  0  0  1  0  0  0  0  0999 V2000
    3.6860  -48.7060    7.2620 O   0  0  0  0  0  0  0  0  0  0  0  0
    3.2890  -49.6580    6.5750 C   0  0  0  0  0  0  0  0  0  0  0  0
    3.9900  -50.5080    5.9960 O   0  5  0  0  0  0  0  0  0  0  0  0
    1.7680  -49.8410    6.4220 C   0  0  0  0  0  0  0  0  0  0  0  0
   -0.2160  -50.9700    6.5530 C   0  0  0  0  0  0  0  0  0  0  0  0
   -1.2400  -51.9040    6.7840 C   0  0  0  0  0  0  0  0  0  0  0  0
   -2.5260  -51.5450    6.4100 C   0  0  0  0  0  0  0  0  0  0  0  0
   -2.7930  -50.2880    5.8180 C   0  0  0  0  0  0  0  0  0  0  0  0
   -1.7850  -49.3600    5.5890 C   0  0  0  0  0  0  0  0  0  0  0  0
   -0.4680  -49.6810    5.9560 C   0  0  0  0  0  0  0  0  0  0  0  0
    0.8020  -48.9890    5.8960 C   0  0  0  0  0  0  0  0  0  0  0  0
    0.9940  -47.6050    5.3880 C   0  0  0  0  0  0  0  0  0  0  0  0
    1.1170  -46.5760    6.5270 C   0  0  0  0  0  0  0  0  0  0  0  0
   -0.1970  -46.3800    7.2730 C   0  0  0  0  0  0  0  0  0  0  0  0
   -0.9220  -45.3990    6.4370 O   0  0  0  0  0  0  0  0  0  0  0  0
   -2.2720  -45.3030    6.5890 C   0  0  0  0  0  0  0  0  0  0  0  0
   -2.9000  -44.3830    5.7220 C   0  0  0  0  0  0  0  0  0  0  0  0
   -4.2780  -44.2010    5.7590 C   0  0  0  0  0  0  0  0  0  0  0  0
   -5.0040  -44.9540    6.6810 C   0  0  0  0  0  0  0  0  0  0  0  0
   -4.4020  -45.8750    7.5530 C   0  0  0  0  0  0  0  0  0  0  0  0
   -3.0240  -46.0390    7.5240 C   0  0  0  0  0  0  0  0  0  0  0  0
   -1.0390  -52.8720    7.2430 H   0  0  0  0  0  0  0  0  0  0  0  0
   -3.3540  -52.2350    6.5740 H   0  0  0  0  0  0  0  0  0  0  0  0
   -3.8220  -50.0560    5.5420 H   0  0  0  0  0  0  0  0  0  0  0  0
   -2.0250  -48.3990    5.1330 H   0  0  0  0  0  0  0  0  0  0  0  0
    0.1180  -47.3130    4.7520 H   0  0  0  0  0  0  0  0  0  0  0  0
    1.9170  -47.5410    4.7640 H   0  0  0  0  0  0  0  0  0  0  0  0
    1.4170  -45.5960    6.0920 H   0  0  0  0  0  0  0  0  0  0  0  0
    1.8930  -46.9240    7.2550 H   0  0  0  0  0  0  0  0  0  0  0  0
   -0.0810  -45.8870    8.2580 H   0  0  0  0  0  0  0  0  0  0  0  0
   -0.7870  -47.3210    7.3240 H   0  0  0  0  0  0  0  0  0  0  0  0
   -2.3310  -43.7880    5.0260 H   0  0  0  0  0  0  0  0  0  0  0  0
   -2.5730  -46.7390    8.2260 H   0  0  0  0  0  0  0  0  0  0  0  0
    1.1600  -51.0420    6.8290 N   0  0  0  0  0  0  0  0  0  0  0  0
    1.6040  -51.8530    7.2420 H   0  0  0  0  0  0  0  0  0  0  0  0
   -5.0000  -46.4760    8.2440 H   0  0  0  0  0  0  0  0  0  0  0  0
   -4.7660  -43.4930    5.0910 H   0  0  0  0  0  0  0  0  0  0  0  0
   -6.4070  -44.7660    6.6650 O   0  0  0  0  0  0  0  0  0  0  0  0
   -7.9720  -45.1480   10.4910 C   0  0  0  0  0  0  0  0  0  0  0  0
   -6.7020  -44.5960   10.3220 C   0  0  0  0  0  0  0  0  0  0  0  0
   -6.2030  -44.3720    9.0500 C   0  0  0  0  0  0  0  0  0  0  0  0
   -6.9560  -44.7990    7.9430 C   0  0  0  0  0  0  0  0  0  0  0  0
   -8.2470  -45.3100    8.0720 C   0  0  0  0  0  0  0  0  0  0  0  0
   -8.7450  -45.4500    9.3700 C   0  0  0  0  0  0  0  0  0  0  0  0
   -8.3400  -45.3070   11.5010 H   0  0  0  0  0  0  0  0  0  0  0  0
   -6.1180  -44.3390   11.1870 H   0  0  0  0  0  0  0  0  0  0  0  0
   -5.2320  -43.9230    8.9040 H   0  0  0  0  0  0  0  0  0  0  0  0
   -8.8370  -45.6020    7.2090 H   0  0  0  0  0  0  0  0  0  0  0  0
   -9.7610  -45.8080    9.5040 H   0  0  0  0  0  0  0  0  0  0  0  0
  1  2  2  0  0  0  0
  2  3  1  0  0  0  0
  2  4  1  0  0  0  0
  4 11  2  0  0  0  0
  4 34  1  0  0  0  0
  5  6  1  0  0  0  0
  5 10  2  0  0  0  0
  5 34  1  0  0  0  0
  6  7  2  0  0  0  0
  6 22  1  0  0  0  0
  7  8  1  0  0  0  0
  7 23  1  0  0  0  0
  8  9  2  0  0  0  0
  8 24  1  0  0  0  0
  9 10  1  0  0  0  0
  9 25  1  0  0  0  0
 10 11  1  0  0  0  0
 11 12  1  0  0  0  0
 12 26  1  0  0  0  0
 12 27  1  0  0  0  0
 12 13  1  0  0  0  0
 13 14  1  0  0  0  0
 13 28  1  0  0  0  0
 13 29  1  0  0  0  0
 14 15  1  0  0  0  0
 14 30  1  0  0  0  0
 14 31  1  0  0  0  0
 15 16  1  0  0  0  0
 16 17  1  0  0  0  0
 16 21  2  0  0  0  0
 17 18  2  0  0  0  0
 17 32  1  0  0  0  0
 18 19  1  0  0  0  0
 18 37  1  0  0  0  0
 19 20  2  0  0  0  0
 19 38  1  0  0  0  0
 20 21  1  0  0  0  0
 20 36  1  0  0  0  0
 21 33  1  0  0  0  0
 34 35  1  0  0  0  0
 38 42  1  0  0  0  0
 39 40  2  0  0  0  0
 39 44  1  0  0  0  0
 39 45  1  0  0  0  0
 40 41  1  0  0  0  0
 40 46  1  0  0  0  0
 41 42  2  0  0  0  0
 41 47  1  0  0  0  0
 42 43  1  0  0  0  0
 43 44  2  0  0  0  0
 43 48  1  0  0  0  0
 44 49  1  0  0  0  0
M  CHG  1   3  -1
M  END
$$$$
