p38a_2r
 OpenBabel02232411163D
Structure written by MMmdl.
 56 59  0  0  0  0  0  0  0  0999 V2000
   38.2870   36.5230   17.2260 C   0  0  0  0  0  0  0  0  0  0  0  0
   34.4820   35.0920   21.3420 C   0  0  0  0  0  0  0  0  0  0  0  0
   37.5370   36.0870   18.3150 C   0  0  0  0  0  0  0  0  0  0  0  0
   33.8790   39.1670   23.8780 C   0  0  0  0  0  0  0  0  0  0  0  0
   34.6550   37.9600   21.5250 C   0  0  0  0  0  0  0  0  0  0  0  0
   35.1250   37.3030   20.3370 C   0  0  0  0  0  0  0  0  0  0  0  0
   37.6050   36.6450   16.0080 C   0  0  0  0  0  0  0  0  0  0  0  0
   36.2530   36.3300   15.8470 C   0  0  0  0  0  0  0  0  0  0  0  0
   35.5250   35.8830   16.9550 C   0  0  0  0  0  0  0  0  0  0  0  0
   34.1280   37.1970   22.6120 C   0  0  0  0  0  0  0  0  0  0  0  0
   34.6960   39.3710   21.6900 C   0  0  0  0  0  0  0  0  0  0  0  0
   35.0640   35.9530   20.2760 C   0  0  0  0  0  0  0  0  0  0  0  0
   36.1730   35.7490   18.1860 C   0  0  0  0  0  0  0  0  0  0  0  0
   38.1060   35.9830   19.5090 F   0  0  0  0  0  0  0  0  0  0  0  0
   35.4970   35.1250   19.2420 O   0  0  0  0  0  0  0  0  0  0  0  0
   34.3420   39.9870   22.8270 N   0  0  0  0  0  0  0  0  0  0  0  0
   34.3760   33.8850   21.2760 O   0  0  0  0  0  0  0  0  0  0  0  0
   33.9950   35.7990   22.4930 N   0  0  0  0  0  0  0  0  0  0  0  0
   33.7130   37.8020   23.7690 N   0  0  0  0  0  0  0  0  0  0  0  0
   33.5280   39.7800   25.0600 N   0  0  0  0  0  0  0  0  0  0  0  0
   39.3430   36.7920   17.3230 H   0  0  0  0  0  0  0  0  0  0  0  0
   35.5180   37.9190   19.5240 H   0  0  0  0  0  0  0  0  0  0  0  0
   35.7570   36.4400   14.8800 H   0  0  0  0  0  0  0  0  0  0  0  0
   34.4590   35.6550   16.8500 H   0  0  0  0  0  0  0  0  0  0  0  0
   35.0330   40.0080   20.8560 H   0  0  0  0  0  0  0  0  0  0  0  0
   33.7250   40.7920   25.1880 H   0  0  0  0  0  0  0  0  0  0  0  0
   38.2730   37.1210   14.9590 F   0  0  0  0  0  0  0  0  0  0  0  0
   32.3250   39.2830   28.6510 C   0  0  0  0  0  0  0  0  0  0  0  0
   32.5540   39.9770   27.3040 C   0  0  0  0  0  0  0  0  0  0  0  0
   33.2050   39.0030   26.2990 C   0  0  0  0  0  0  0  0  0  0  0  0
   34.4660   38.3500   26.9080 C   0  0  0  0  0  0  0  0  0  0  0  0
   34.1430   37.7490   28.2800 C   0  0  0  0  0  0  0  0  0  0  0  0
   33.5510   38.7240   29.1710 O   0  0  0  0  0  0  0  0  0  0  0  0
   31.5630   38.4740   28.5600 H   0  0  0  0  0  0  0  0  0  0  0  0
   32.0440   40.0200   29.4390 H   0  0  0  0  0  0  0  0  0  0  0  0
   33.2090   40.8690   27.4590 H   0  0  0  0  0  0  0  0  0  0  0  0
   31.5800   40.3300   26.8920 H   0  0  0  0  0  0  0  0  0  0  0  0
   32.4640   38.2000   26.0270 H   0  0  0  0  0  0  0  0  0  0  0  0
   34.8180   37.5210   26.2400 H   0  0  0  0  0  0  0  0  0  0  0  0
   35.2770   39.1060   27.0040 H   0  0  0  0  0  0  0  0  0  0  0  0
   33.4470   36.8840   28.1850 H   0  0  0  0  0  0  0  0  0  0  0  0
   35.0720   37.4640   28.8260 H   0  0  0  0  0  0  0  0  0  0  0  0
   33.3780   35.0230   23.6070 C   0  0  0  0  0  0  0  0  0  0  0  0
   32.6050   35.6760   24.1110 H   0  0  0  0  0  0  0  0  0  0  0  0
   32.8410   34.1350   23.1700 H   0  0  0  0  0  0  0  0  0  0  0  0
   34.3750   34.5040   24.6900 C   0  0  0  0  0  0  0  0  0  0  0  0
   35.3850   35.5270   24.8510 O   0  0  0  0  0  0  0  0  0  0  0  0
   35.8890   35.3380   25.6910 H   0  0  0  0  0  0  0  0  0  0  0  0
   35.0900   33.2090   24.2770 C   0  0  0  0  0  0  0  0  0  0  0  0
   35.3290   33.2240   23.1940 H   0  0  0  0  0  0  0  0  0  0  0  0
   36.0440   33.1330   24.8440 H   0  0  0  0  0  0  0  0  0  0  0  0
   34.4600   32.3230   24.5020 H   0  0  0  0  0  0  0  0  0  0  0  0
   33.6070   34.3190   26.0110 C   0  0  0  0  0  0  0  0  0  0  0  0
   34.2790   33.9320   26.8080 H   0  0  0  0  0  0  0  0  0  0  0  0
   33.1840   35.2890   26.3600 H   0  0  0  0  0  0  0  0  0  0  0  0
   32.7670   33.5990   25.8870 H   0  0  0  0  0  0  0  0  0  0  0  0
  1  3  2  0  0  0  0
  1  7  1  0  0  0  0
  1 21  1  0  0  0  0
  2 12  1  0  0  0  0
  2 17  2  0  0  0  0
  2 18  1  0  0  0  0
  3 13  1  0  0  0  0
  3 14  1  0  0  0  0
  4 16  2  0  0  0  0
  4 19  1  0  0  0  0
  4 20  1  0  0  0  0
  5  6  1  0  0  0  0
  5 10  1  0  0  0  0
  5 11  2  0  0  0  0
  6 12  2  0  0  0  0
  6 22  1  0  0  0  0
  7  8  2  0  0  0  0
  7 27  1  0  0  0  0
  8  9  1  0  0  0  0
  8 23  1  0  0  0  0
  9 13  2  0  0  0  0
  9 24  1  0  0  0  0
 10 18  1  0  0  0  0
 10 19  2  0  0  0  0
 11 16  1  0  0  0  0
 11 25  1  0  0  0  0
 12 15  1  0  0  0  0
 13 15  1  0  0  0  0
 18 43  1  0  0  0  0
 20 26  1  0  0  0  0
 20 30  1  0  0  0  0
 28 29  1  0  0  0  0
 28 33  1  0  0  0  0
 28 34  1  0  0  0  0
 28 35  1  0  0  0  0
 29 30  1  0  0  0  0
 29 36  1  0  0  0  0
 29 37  1  0  0  0  0
 30 31  1  0  0  0  0
 30 38  1  0  0  0  0
 31 32  1  0  0  0  0
 31 39  1  0  0  0  0
 31 40  1  0  0  0  0
 32 33  1  0  0  0  0
 32 41  1  0  0  0  0
 32 42  1  0  0  0  0
 43 44  1  0  0  0  0
 43 45  1  0  0  0  0
 43 46  1  0  0  0  0
 46 47  1  0  0  0  0
 46 49  1  0  0  0  0
 46 53  1  0  0  0  0
 47 48  1  0  0  0  0
 49 50  1  0  0  0  0
 49 51  1  0  0  0  0
 49 52  1  0  0  0  0
 53 54  1  0  0  0  0
 53 55  1  0  0  0  0
 53 56  1  0  0  0  0
M  END
$$$$
