p38a_2o
 OpenBabel02232411163D
Structure written by MMmdl.
 55 58  0  0  0  0  0  0  0  0999 V2000
   38.2080   36.4890   17.2290 C   0  0  0  0  0  0  0  0  0  0  0  0
   34.5600   35.1740   21.3560 C   0  0  0  0  0  0  0  0  0  0  0  0
   37.4060   36.0680   18.2860 C   0  0  0  0  0  0  0  0  0  0  0  0
   34.0590   39.2940   23.8480 C   0  0  0  0  0  0  0  0  0  0  0  0
   34.5880   38.0550   21.4410 C   0  0  0  0  0  0  0  0  0  0  0  0
   34.9270   37.3820   20.2170 C   0  0  0  0  0  0  0  0  0  0  0  0
   37.5710   36.6600   15.9920 C   0  0  0  0  0  0  0  0  0  0  0  0
   36.2130   36.4070   15.7840 C   0  0  0  0  0  0  0  0  0  0  0  0
   35.4300   35.9770   16.8610 C   0  0  0  0  0  0  0  0  0  0  0  0
   34.3120   37.3000   22.6190 C   0  0  0  0  0  0  0  0  0  0  0  0
   34.5330   39.4700   21.5580 C   0  0  0  0  0  0  0  0  0  0  0  0
   34.9480   36.0310   20.2040 C   0  0  0  0  0  0  0  0  0  0  0  0
   36.0320   35.7980   18.1100 C   0  0  0  0  0  0  0  0  0  0  0  0
   37.9320   35.9140   19.4930 F   0  0  0  0  0  0  0  0  0  0  0  0
   35.2870   35.2000   19.1360 O   0  0  0  0  0  0  0  0  0  0  0  0
   34.2840   40.1010   22.7140 N   0  0  0  0  0  0  0  0  0  0  0  0
   34.4750   33.9670   21.3370 O   0  0  0  0  0  0  0  0  0  0  0  0
   34.2970   35.8920   22.5810 N   0  0  0  0  0  0  0  0  0  0  0  0
   34.0730   37.9120   23.8220 N   0  0  0  0  0  0  0  0  0  0  0  0
   33.7590   39.9260   25.0300 N   0  0  0  0  0  0  0  0  0  0  0  0
   39.2710   36.7130   17.3630 H   0  0  0  0  0  0  0  0  0  0  0  0
   35.1710   37.9910   19.3430 H   0  0  0  0  0  0  0  0  0  0  0  0
   35.7510   36.5550   14.8050 H   0  0  0  0  0  0  0  0  0  0  0  0
   34.3590   35.7980   16.7210 H   0  0  0  0  0  0  0  0  0  0  0  0
   34.6980   40.1000   20.6670 H   0  0  0  0  0  0  0  0  0  0  0  0
   33.8300   40.9600   25.0960 H   0  0  0  0  0  0  0  0  0  0  0  0
   38.2910   37.1240   14.9740 F   0  0  0  0  0  0  0  0  0  0  0  0
   32.5680   39.2350   28.5940 C   0  0  0  0  0  0  0  0  0  0  0  0
   32.5820   39.8630   27.1940 C   0  0  0  0  0  0  0  0  0  0  0  0
   33.6750   39.1980   26.3330 C   0  0  0  0  0  0  0  0  0  0  0  0
   35.0400   39.2540   27.0550 C   0  0  0  0  0  0  0  0  0  0  0  0
   34.9110   38.6570   28.4610 C   0  0  0  0  0  0  0  0  0  0  0  0
   33.8660   39.3030   29.2250 O   0  0  0  0  0  0  0  0  0  0  0  0
   32.2400   38.1710   28.5460 H   0  0  0  0  0  0  0  0  0  0  0  0
   31.9340   39.8290   29.2920 H   0  0  0  0  0  0  0  0  0  0  0  0
   32.7770   40.9590   27.2790 H   0  0  0  0  0  0  0  0  0  0  0  0
   31.5860   39.7210   26.7090 H   0  0  0  0  0  0  0  0  0  0  0  0
   33.3890   38.1270   26.1360 H   0  0  0  0  0  0  0  0  0  0  0  0
   35.7940   38.6720   26.4740 H   0  0  0  0  0  0  0  0  0  0  0  0
   35.3830   40.3150   27.1210 H   0  0  0  0  0  0  0  0  0  0  0  0
   34.6990   37.5640   28.4100 H   0  0  0  0  0  0  0  0  0  0  0  0
   35.8170   38.8740   29.0750 H   0  0  0  0  0  0  0  0  0  0  0  0
   33.9630   35.1130   23.8270 C   0  0  0  0  0  0  0  0  0  0  0  0
   34.3900   34.0800   23.6870 H   0  0  0  0  0  0  0  0  0  0  0  0
   34.4660   35.6240   24.7000 H   0  0  0  0  0  0  0  0  0  0  0  0
   32.4520   35.0560   24.0690 C   0  0  0  0  0  0  0  0  0  0  0  0
   32.1020   36.0620   24.4430 H   0  0  0  0  0  0  0  0  0  0  0  0
   31.9030   34.8970   23.1020 H   0  0  0  0  0  0  0  0  0  0  0  0
   31.9500   33.8040   25.2150 S   0  0  0  0  0  0  0  0  0  0  0  0
   32.4160   34.0920   26.5890 O   0  0  0  0  0  0  0  0  0  0  0  0
   32.4640   32.4970   24.7490 O   0  0  0  0  0  0  0  0  0  0  0  0
   30.2160   33.8310   25.1440 C   0  0  0  0  0  0  0  0  0  0  0  0
   29.8180   33.4720   24.1590 H   0  0  0  0  0  0  0  0  0  0  0  0
   29.7500   33.1900   25.9350 H   0  0  0  0  0  0  0  0  0  0  0  0
   29.7970   34.8630   25.2840 H   0  0  0  0  0  0  0  0  0  0  0  0
  1  3  2  0  0  0  0
  1  7  1  0  0  0  0
  1 21  1  0  0  0  0
  2 12  1  0  0  0  0
  2 17  2  0  0  0  0
  2 18  1  0  0  0  0
  3 13  1  0  0  0  0
  3 14  1  0  0  0  0
  4 16  2  0  0  0  0
  4 19  1  0  0  0  0
  4 20  1  0  0  0  0
  5  6  1  0  0  0  0
  5 10  1  0  0  0  0
  5 11  2  0  0  0  0
  6 12  2  0  0  0  0
  6 22  1  0  0  0  0
  7  8  2  0  0  0  0
  7 27  1  0  0  0  0
  8  9  1  0  0  0  0
  8 23  1  0  0  0  0
  9 13  2  0  0  0  0
  9 24  1  0  0  0  0
 10 18  1  0  0  0  0
 10 19  2  0  0  0  0
 11 16  1  0  0  0  0
 11 25  1  0  0  0  0
 12 15  1  0  0  0  0
 13 15  1  0  0  0  0
 18 43  1  0  0  0  0
 20 26  1  0  0  0  0
 20 30  1  0  0  0  0
 28 29  1  0  0  0  0
 28 33  1  0  0  0  0
 28 34  1  0  0  0  0
 28 35  1  0  0  0  0
 29 30  1  0  0  0  0
 29 36  1  0  0  0  0
 29 37  1  0  0  0  0
 30 31  1  0  0  0  0
 30 38  1  0  0  0  0
 31 32  1  0  0  0  0
 31 39  1  0  0  0  0
 31 40  1  0  0  0  0
 32 33  1  0  0  0  0
 32 41  1  0  0  0  0
 32 42  1  0  0  0  0
 43 44  1  0  0  0  0
 43 45  1  0  0  0  0
 43 46  1  0  0  0  0
 46 47  1  0  0  0  0
 46 48  1  0  0  0  0
 46 49  1  0  0  0  0
 49 50  2  0  0  0  0
 49 51  2  0  0  0  0
 49 52  1  0  0  0  0
 52 53  1  0  0  0  0
 52 54  1  0  0  0  0
 52 55  1  0  0  0  0
M  END
$$$$
