p38a_2s
 OpenBabel02232411163D
Structure written by MMmdl.
 54 57  0  0  1  0  0  0  0  0999 V2000
   38.2020   36.4660   17.2450 C   0  0  0  0  0  0  0  0  0  0  0  0
   34.3310   35.0910   21.2390 C   0  0  0  0  0  0  0  0  0  0  0  0
   37.3930   36.0240   18.2880 C   0  0  0  0  0  0  0  0  0  0  0  0
   33.8460   39.2020   23.7460 C   0  0  0  0  0  0  0  0  0  0  0  0
   34.4560   37.9700   21.3570 C   0  0  0  0  0  0  0  0  0  0  0  0
   34.8770   37.2930   20.1610 C   0  0  0  0  0  0  0  0  0  0  0  0
   37.5790   36.6320   16.0000 C   0  0  0  0  0  0  0  0  0  0  0  0
   36.2300   36.3530   15.7710 C   0  0  0  0  0  0  0  0  0  0  0  0
   35.4410   35.8980   16.8330 C   0  0  0  0  0  0  0  0  0  0  0  0
   34.0360   37.2180   22.4930 C   0  0  0  0  0  0  0  0  0  0  0  0
   34.4770   39.3850   21.4940 C   0  0  0  0  0  0  0  0  0  0  0  0
   34.8540   35.9400   20.1360 C   0  0  0  0  0  0  0  0  0  0  0  0
   36.0280   35.7230   18.0890 C   0  0  0  0  0  0  0  0  0  0  0  0
   37.9020   35.8790   19.5040 F   0  0  0  0  0  0  0  0  0  0  0  0
   35.2840   35.1060   19.1040 O   0  0  0  0  0  0  0  0  0  0  0  0
   34.1870   40.0120   22.6430 N   0  0  0  0  0  0  0  0  0  0  0  0
   34.2390   33.8830   21.2200 O   0  0  0  0  0  0  0  0  0  0  0  0
   33.9180   35.8150   22.4150 N   0  0  0  0  0  0  0  0  0  0  0  0
   33.7520   37.8230   23.6880 N   0  0  0  0  0  0  0  0  0  0  0  0
   33.5360   39.8340   24.9260 N   0  0  0  0  0  0  0  0  0  0  0  0
   39.2590   36.7100   17.3950 H   0  0  0  0  0  0  0  0  0  0  0  0
   35.2220   37.8970   19.3190 H   0  0  0  0  0  0  0  0  0  0  0  0
   35.7790   36.5000   14.7870 H   0  0  0  0  0  0  0  0  0  0  0  0
   34.3760   35.6960   16.6760 H   0  0  0  0  0  0  0  0  0  0  0  0
   34.7430   40.0160   20.6290 H   0  0  0  0  0  0  0  0  0  0  0  0
   33.6810   40.8600   25.0110 H   0  0  0  0  0  0  0  0  0  0  0  0
   38.3040   37.1170   14.9950 F   0  0  0  0  0  0  0  0  0  0  0  0
   32.2730   39.1370   28.4630 C   0  0  0  0  0  0  0  0  0  0  0  0
   32.3290   39.7850   27.0740 C   0  0  0  0  0  0  0  0  0  0  0  0
   33.4140   39.0960   26.2220 C   0  0  0  0  0  0  0  0  0  0  0  0
   34.7690   39.1090   26.9630 C   0  0  0  0  0  0  0  0  0  0  0  0
   34.6040   38.4980   28.3600 C   0  0  0  0  0  0  0  0  0  0  0  0
   33.5630   39.1600   29.1150 O   0  0  0  0  0  0  0  0  0  0  0  0
   31.9170   38.0830   28.3990 H   0  0  0  0  0  0  0  0  0  0  0  0
   31.6470   39.7380   29.1630 H   0  0  0  0  0  0  0  0  0  0  0  0
   32.5620   40.8710   27.1780 H   0  0  0  0  0  0  0  0  0  0  0  0
   31.3380   39.6850   26.5700 H   0  0  0  0  0  0  0  0  0  0  0  0
   33.1040   38.0330   26.0130 H   0  0  0  0  0  0  0  0  0  0  0  0
   35.5220   38.5170   26.3910 H   0  0  0  0  0  0  0  0  0  0  0  0
   35.1410   40.1590   27.0500 H   0  0  0  0  0  0  0  0  0  0  0  0
   34.3650   37.4110   28.2940 H   0  0  0  0  0  0  0  0  0  0  0  0
   35.5050   38.6830   28.9890 H   0  0  0  0  0  0  0  0  0  0  0  0
   33.4370   35.0410   23.6010 C   0  0  0  0  0  0  0  0  0  0  0  0
   33.8070   33.9840   23.5120 H   0  0  0  0  0  0  0  0  0  0  0  0
   33.8750   35.4920   24.5430 H   0  0  0  0  0  0  0  0  0  0  0  0
   31.8970   35.0780   23.7420 C   0  0  2  0  0  0  0  0  0  0  0  0
   31.6770   35.0100   25.1630 O   0  0  0  0  0  0  0  0  0  0  0  0
   30.8560   34.4620   25.3310 H   0  0  0  0  0  0  0  0  0  0  0  0
   31.1650   33.8920   23.0660 C   0  0  0  0  0  0  0  0  0  0  0  0
   31.7510   32.9440   23.1210 H   0  0  0  0  0  0  0  0  0  0  0  0
   30.8610   34.1240   22.0240 H   0  0  0  0  0  0  0  0  0  0  0  0
   31.4700   36.0520   23.4050 H   0  0  0  0  0  0  0  0  0  0  0  0
   30.0020   33.5860   23.8620 O   0  0  0  0  0  0  0  0  0  0  0  0
   29.2480   34.2090   23.6140 H   0  0  0  0  0  0  0  0  0  0  0  0
  1  3  2  0  0  0  0
  1  7  1  0  0  0  0
  1 21  1  0  0  0  0
  2 12  1  0  0  0  0
  2 17  2  0  0  0  0
  2 18  1  0  0  0  0
  3 13  1  0  0  0  0
  3 14  1  0  0  0  0
  4 16  2  0  0  0  0
  4 19  1  0  0  0  0
  4 20  1  0  0  0  0
  5  6  1  0  0  0  0
  5 10  1  0  0  0  0
  5 11  2  0  0  0  0
  6 12  2  0  0  0  0
  6 22  1  0  0  0  0
  7  8  2  0  0  0  0
  7 27  1  0  0  0  0
  8  9  1  0  0  0  0
  8 23  1  0  0  0  0
  9 13  2  0  0  0  0
  9 24  1  0  0  0  0
 10 18  1  0  0  0  0
 10 19  2  0  0  0  0
 11 16  1  0  0  0  0
 11 25  1  0  0  0  0
 12 15  1  0  0  0  0
 13 15  1  0  0  0  0
 18 43  1  0  0  0  0
 20 26  1  0  0  0  0
 20 30  1  0  0  0  0
 28 29  1  0  0  0  0
 28 33  1  0  0  0  0
 28 34  1  0  0  0  0
 28 35  1  0  0  0  0
 29 30  1  0  0  0  0
 29 36  1  0  0  0  0
 29 37  1  0  0  0  0
 30 31  1  0  0  0  0
 30 38  1  0  0  0  0
 31 32  1  0  0  0  0
 31 39  1  0  0  0  0
 31 40  1  0  0  0  0
 32 33  1  0  0  0  0
 32 41  1  0  0  0  0
 32 42  1  0  0  0  0
 43 44  1  0  0  0  0
 43 45  1  0  0  0  0
 43 46  1  0  0  0  0
 46 47  1  0  0  0  0
 46 49  1  0  0  0  0
 46 52  1  1  0  0  0
 47 48  1  0  0  0  0
 49 50  1  0  0  0  0
 49 51  1  0  0  0  0
 49 53  1  0  0  0  0
 53 54  1  0  0  0  0
M  END
$$$$
