18637-1
 OpenBabel02232411163D
Structure written by MMmdl.
 53 54  0  0  0  0  0  0  0  0999 V2000
   23.2200   10.8200   29.0830 C   0  0  0  0  0  0  0  0  0  0  0  0
   23.4770   11.0530   30.5570 C   0  0  0  0  0  0  0  0  0  0  0  0
   22.2040   11.1560   31.3010 O   0  0  0  0  0  0  0  0  0  0  0  0
   21.5410   10.0260   31.6350 C   0  0  0  0  0  0  0  0  0  0  0  0
   22.0000    8.8310   31.2000 N   0  0  0  0  0  0  0  0  0  0  0  0
   21.2470    7.7050   31.4990 C   0  0  0  0  0  0  0  0  0  0  0  0
   20.0880    7.7590   32.2670 C   0  0  0  0  0  0  0  0  0  0  0  0
   19.6290    9.0150   32.7440 C   0  0  0  0  0  0  0  0  0  0  0  0
   18.4810    9.0740   33.4940 N   0  0  0  0  0  0  0  0  0  0  0  0
   20.3600   10.2030   32.4160 C   0  0  0  0  0  0  0  0  0  0  0  0
   19.9670   11.5070   32.7820 C   0  0  0  0  0  0  0  0  0  0  0  0
   19.6930   12.6040   33.0400 N   0  0  0  0  0  0  0  0  0  0  0  0
   21.8030    6.5490   30.9150 N   0  0  0  0  0  0  0  0  0  0  0  0
   21.2050    5.2700   30.8150 C   0  0  0  0  0  0  0  0  0  0  0  0
   20.1230    5.0170   31.3000 O   0  0  0  0  0  0  0  0  0  0  0  0
   22.0220    4.2930   29.9800 C   0  0  0  0  0  0  0  0  0  0  0  0
   23.3530    3.9730   30.5900 C   0  0  0  0  0  0  0  0  0  0  0  0
   24.4710    4.8120   30.3890 C   0  0  0  0  0  0  0  0  0  0  0  0
   24.2070    5.8880   29.5550 O   0  0  0  0  0  0  0  0  0  0  0  0
   25.1850    6.9600   29.4700 C   0  0  0  0  0  0  0  0  0  0  0  0
   25.7180    4.5500   30.9720 C   0  0  0  0  0  0  0  0  0  0  0  0
   25.8800    3.4080   31.7610 C   0  0  0  0  0  0  0  0  0  0  0  0
   24.7600    2.5400   31.9470 C   0  0  0  0  0  0  0  0  0  0  0  0
   23.5240    2.8210   31.3710 C   0  0  0  0  0  0  0  0  0  0  0  0
   25.0450    1.4550   32.7590 O   0  0  0  0  0  0  0  0  0  0  0  0
   24.0860    0.3680   32.7890 C   0  0  0  0  0  0  0  0  0  0  0  0
   27.1130    3.1030   32.4100 N   0  0  0  0  0  0  0  0  0  0  0  0
   28.3970    3.3070   31.8460 C   0  0  0  0  0  0  0  0  0  0  0  0
   28.5210    3.7720   30.7250 O   0  0  0  0  0  0  0  0  0  0  0  0
   29.5270    2.9200   32.7480 C   0  0  0  0  0  0  0  0  0  0  0  0
   22.7970    9.8040   28.9020 H   0  0  0  0  0  0  0  0  0  0  0  0
   22.5170   11.5780   28.6700 H   0  0  0  0  0  0  0  0  0  0  0  0
   24.1850   10.9010   28.5250 H   0  0  0  0  0  0  0  0  0  0  0  0
   23.8840   12.0730   30.7570 H   0  0  0  0  0  0  0  0  0  0  0  0
   24.1070   10.2530   31.0070 H   0  0  0  0  0  0  0  0  0  0  0  0
   19.5160    6.8570   32.4920 H   0  0  0  0  0  0  0  0  0  0  0  0
   18.0970    9.9630   33.8110 H   0  0  0  0  0  0  0  0  0  0  0  0
   17.9770    8.2090   33.7670 H   0  0  0  0  0  0  0  0  0  0  0  0
   22.7270    6.6980   30.4360 H   0  0  0  0  0  0  0  0  0  0  0  0
   21.4270    3.3520   29.8520 H   0  0  0  0  0  0  0  0  0  0  0  0
   22.1820    4.7540   28.9670 H   0  0  0  0  0  0  0  0  0  0  0  0
   25.4100    7.3620   30.4810 H   0  0  0  0  0  0  0  0  0  0  0  0
   26.0920    6.5940   28.9460 H   0  0  0  0  0  0  0  0  0  0  0  0
   24.6330    7.7090   28.8560 H   0  0  0  0  0  0  0  0  0  0  0  0
   26.5590    5.2320   30.8170 H   0  0  0  0  0  0  0  0  0  0  0  0
   22.6790    2.1450   31.5220 H   0  0  0  0  0  0  0  0  0  0  0  0
   24.6280   -0.3860   33.4090 H   0  0  0  0  0  0  0  0  0  0  0  0
   23.1510    0.6990   33.2910 H   0  0  0  0  0  0  0  0  0  0  0  0
   23.9050   -0.0130   31.7610 H   0  0  0  0  0  0  0  0  0  0  0  0
   27.0450    2.5450   33.2770 H   0  0  0  0  0  0  0  0  0  0  0  0
   29.4440    1.8600   33.1000 H   0  0  0  0  0  0  0  0  0  0  0  0
   30.5110    3.0200   32.2210 H   0  0  0  0  0  0  0  0  0  0  0  0
   29.5610    3.5770   33.6550 H   0  0  0  0  0  0  0  0  0  0  0  0
  1  2  1  0  0  0  0
  1 31  1  0  0  0  0
  1 32  1  0  0  0  0
  1 33  1  0  0  0  0
  2  3  1  0  0  0  0
  2 34  1  0  0  0  0
  2 35  1  0  0  0  0
  3  4  1  0  0  0  0
  4 10  2  0  0  0  0
  4  5  1  0  0  0  0
  5  6  2  0  0  0  0
  6  7  1  0  0  0  0
  6 13  1  0  0  0  0
  7  8  2  0  0  0  0
  7 36  1  0  0  0  0
  8  9  1  0  0  0  0
  8 10  1  0  0  0  0
  9 37  1  0  0  0  0
  9 38  1  0  0  0  0
 10 11  1  0  0  0  0
 11 12  3  0  0  0  0
 13 14  1  0  0  0  0
 13 39  1  0  0  0  0
 14 15  2  0  0  0  0
 14 16  1  0  0  0  0
 16 17  1  0  0  0  0
 16 40  1  0  0  0  0
 16 41  1  0  0  0  0
 17 24  2  0  0  0  0
 17 18  1  0  0  0  0
 18 19  1  0  0  0  0
 18 21  2  0  0  0  0
 19 20  1  0  0  0  0
 20 42  1  0  0  0  0
 20 43  1  0  0  0  0
 20 44  1  0  0  0  0
 21 22  1  0  0  0  0
 21 45  1  0  0  0  0
 22 23  2  0  0  0  0
 22 27  1  0  0  0  0
 23 24  1  0  0  0  0
 23 25  1  0  0  0  0
 24 46  1  0  0  0  0
 25 26  1  0  0  0  0
 26 47  1  0  0  0  0
 26 48  1  0  0  0  0
 26 49  1  0  0  0  0
 27 28  1  0  0  0  0
 27 50  1  0  0  0  0
 28 29  2  0  0  0  0
 28 30  1  0  0  0  0
 30 51  1  0  0  0  0
 30 52  1  0  0  0  0
 30 53  1  0  0  0  0
M  END
$$$$
