CAT-13c
                    3D
 Schrodinger Suite 2022-3.
 45 47  0  0  1  0  0  0  0  0999 V2000
   16.6850   -4.7910   -1.3040 C   0  0  0  0  0  0  0  0  0  0  0  0
   15.1740   -4.5610   -1.3730 C   0  0  0  0  0  0  0  0  0  0  0  0
   14.4260   -5.5840   -0.5100 C   0  0  0  0  0  0  0  0  0  0  0  0
   14.8270   -3.0960   -0.9610 C   0  0  2  0  0  0  0  0  0  0  0  0
   15.2710   -1.9820   -1.8990 C   0  0  0  0  0  0  0  0  0  0  0  0
   15.7990   -2.2240   -3.1720 C   0  0  0  0  0  0  0  0  0  0  0  0
   16.1510   -1.1460   -3.9950 C   0  0  0  0  0  0  0  0  0  0  0  0
   15.9620    0.1700   -3.5750 C   0  0  0  0  0  0  0  0  0  0  0  0
   15.4130    0.4280   -2.3060 C   0  0  0  0  0  0  0  0  0  0  0  0
   15.1680    1.8130   -1.8390 C   0  0  0  0  0  0  0  0  0  0  0  0
   14.5460    2.7520   -2.6780 C   0  0  0  0  0  0  0  0  0  0  0  0
   14.3050    4.0540   -2.2260 C   0  0  0  0  0  0  0  0  0  0  0  0
   14.6480    4.4310   -0.9250 C   0  0  0  0  0  0  0  0  0  0  0  0
   15.2390    3.4770   -0.0920 C   0  0  0  0  0  0  0  0  0  0  0  0
   15.5780    3.8770    1.5500 Cl  0  0  0  0  0  0  0  0  0  0  0  0
   15.5250    2.1850   -0.5330 C   0  0  0  0  0  0  0  0  0  0  0  0
   15.0790   -0.6530   -1.4800 C   0  0  0  0  0  0  0  0  0  0  0  0
   15.3190   -2.7940    0.4360 N   0  3  0  0  0  0  0  0  0  0  0  0
   14.2630   -2.7020    1.3330 C   0  0  0  0  0  0  0  0  0  0  0  0
   14.4050   -2.6450    2.6910 N   0  0  0  0  0  0  0  0  0  0  0  0
   13.0470   -2.7540    0.6430 N   0  0  0  0  0  0  0  0  0  0  0  0
   11.7720   -2.4140    1.3050 C   0  0  0  0  0  0  0  0  0  0  0  0
   13.2780   -2.9570   -0.7980 C   0  0  0  0  0  0  0  0  0  0  0  0
   12.3850   -2.9760   -1.5840 O   0  0  0  0  0  0  0  0  0  0  0  0
   17.2390   -3.9290   -1.7390 H   0  0  0  0  0  0  0  0  0  0  0  0
   17.0220   -4.9110   -0.2490 H   0  0  0  0  0  0  0  0  0  0  0  0
   16.9490   -5.7160   -1.8650 H   0  0  0  0  0  0  0  0  0  0  0  0
   14.8270   -4.6900   -2.4360 H   0  0  0  0  0  0  0  0  0  0  0  0
   14.7900   -6.6110   -0.7650 H   0  0  0  0  0  0  0  0  0  0  0  0
   14.6100   -5.4150    0.5740 H   0  0  0  0  0  0  0  0  0  0  0  0
   13.3310   -5.5610   -0.7030 H   0  0  0  0  0  0  0  0  0  0  0  0
   15.9440   -3.2390   -3.5470 H   0  0  0  0  0  0  0  0  0  0  0  0
   16.5850   -1.3440   -4.9810 H   0  0  0  0  0  0  0  0  0  0  0  0
   16.2450    0.9960   -4.2370 H   0  0  0  0  0  0  0  0  0  0  0  0
   14.2330    2.4610   -3.6850 H   0  0  0  0  0  0  0  0  0  0  0  0
   13.8280    4.7780   -2.8980 H   0  0  0  0  0  0  0  0  0  0  0  0
   14.4440    5.4430   -0.5650 H   0  0  0  0  0  0  0  0  0  0  0  0
   16.0030    1.4600    0.1260 H   0  0  0  0  0  0  0  0  0  0  0  0
   14.6640   -0.4650   -0.4920 H   0  0  0  0  0  0  0  0  0  0  0  0
   16.2750   -3.0740    0.7760 H   0  0  0  0  0  0  0  0  0  0  0  0
   13.6850   -2.1680    3.2900 H   0  0  0  0  0  0  0  0  0  0  0  0
   10.9150   -2.6640    0.6250 H   0  0  0  0  0  0  0  0  0  0  0  0
   11.6660   -3.0030    2.2570 H   0  0  0  0  0  0  0  0  0  0  0  0
   11.7690   -1.3180    1.5440 H   0  0  0  0  0  0  0  0  0  0  0  0
   15.3790   -2.5540    3.0870 H   0  0  0  0  0  0  0  0  0  0  0  0
  1  2  1  0  0  0  0
  1 25  1  0  0  0  0
  1 26  1  0  0  0  0
  1 27  1  0  0  0  0
  2  3  1  0  0  0  0
  2  4  1  0  0  0  0
  2 28  1  0  0  0  0
  3 29  1  0  0  0  0
  3 30  1  0  0  0  0
  3 31  1  0  0  0  0
  4  5  1  0  0  0  0
  4 18  1  0  0  0  0
  4 23  1  0  0  0  0
  5  6  2  0  0  0  0
  5 17  1  0  0  0  0
  6  7  1  0  0  0  0
  6 32  1  0  0  0  0
  7  8  2  0  0  0  0
  7 33  1  0  0  0  0
  8  9  1  0  0  0  0
  8 34  1  0  0  0  0
  9 10  1  0  0  0  0
  9 17  2  0  0  0  0
 10 11  2  0  0  0  0
 10 16  1  0  0  0  0
 11 12  1  0  0  0  0
 11 35  1  0  0  0  0
 12 13  2  0  0  0  0
 12 36  1  0  0  0  0
 13 14  1  0  0  0  0
 13 37  1  0  0  0  0
 14 15  1  0  0  0  0
 14 16  2  0  0  0  0
 16 38  1  0  0  0  0
 17 39  1  0  0  0  0
 18 19  2  0  0  0  0
 18 40  1  0  0  0  0
 19 20  1  0  0  0  0
 19 21  1  0  0  0  0
 20 41  1  0  0  0  0
 20 45  1  0  0  0  0
 21 22  1  0  0  0  0
 21 23  1  0  0  0  0
 22 42  1  0  0  0  0
 22 43  1  0  0  0  0
 22 44  1  0  0  0  0
 23 24  2  0  0  0  0
M  CHG  1  18   1
M  END
$$$$
