p38a_2gg
 OpenBabel02232411163D
Structure written by MMmdl.
 48 51  0  0  0  0  0  0  0  0999 V2000
   36.3630   35.9830   15.8680 C   0  0  0  0  0  0  0  0  0  0  0  0
   34.5210   35.0450   21.4390 C   0  0  0  0  0  0  0  0  0  0  0  0
   35.6590   35.5320   16.9800 C   0  0  0  0  0  0  0  0  0  0  0  0
   34.2250   39.1600   23.9630 C   0  0  0  0  0  0  0  0  0  0  0  0
   34.7500   37.9080   21.5620 C   0  0  0  0  0  0  0  0  0  0  0  0
   35.1420   37.2230   20.3590 C   0  0  0  0  0  0  0  0  0  0  0  0
   37.6530   36.4780   16.1040 C   0  0  0  0  0  0  0  0  0  0  0  0
   38.2520   36.4940   17.3670 C   0  0  0  0  0  0  0  0  0  0  0  0
   37.5110   36.0670   18.4740 C   0  0  0  0  0  0  0  0  0  0  0  0
   34.3840   37.1670   22.7250 C   0  0  0  0  0  0  0  0  0  0  0  0
   34.7250   39.3240   21.6740 C   0  0  0  0  0  0  0  0  0  0  0  0
   35.0690   35.8730   20.3290 C   0  0  0  0  0  0  0  0  0  0  0  0
   36.2120   35.5910   18.2760 C   0  0  0  0  0  0  0  0  0  0  0  0
   33.9120   35.0170   23.8930 C   0  0  0  0  0  0  0  0  0  0  0  0
   34.4430   35.0180   16.8450 F   0  0  0  0  0  0  0  0  0  0  0  0
   35.4280   35.0210   19.2880 O   0  0  0  0  0  0  0  0  0  0  0  0
   34.4610   39.9590   22.8250 N   0  0  0  0  0  0  0  0  0  0  0  0
   34.2780   33.8610   21.3780 O   0  0  0  0  0  0  0  0  0  0  0  0
   34.2710   35.7710   22.6590 N   0  0  0  0  0  0  0  0  0  0  0  0
   34.1200   37.7880   23.9230 N   0  0  0  0  0  0  0  0  0  0  0  0
   34.1680   39.8410   25.1640 N   0  0  0  0  0  0  0  0  0  0  0  0
   35.9260   35.9790   14.8670 H   0  0  0  0  0  0  0  0  0  0  0  0
   35.5040   37.8240   19.5210 H   0  0  0  0  0  0  0  0  0  0  0  0
   39.2740   36.8630   17.4950 H   0  0  0  0  0  0  0  0  0  0  0  0
   37.9430   36.1330   19.4750 H   0  0  0  0  0  0  0  0  0  0  0  0
   34.9200   39.9500   20.7880 H   0  0  0  0  0  0  0  0  0  0  0  0
   34.7140   35.1590   24.6670 H   0  0  0  0  0  0  0  0  0  0  0  0
   32.9440   35.4060   24.3100 H   0  0  0  0  0  0  0  0  0  0  0  0
   33.8060   33.9250   23.6640 H   0  0  0  0  0  0  0  0  0  0  0  0
   34.0370   40.8740   25.1300 H   0  0  0  0  0  0  0  0  0  0  0  0
   38.3230   36.9900   15.0750 F   0  0  0  0  0  0  0  0  0  0  0  0
   34.4310   37.6810   28.3360 C   0  0  0  0  0  0  0  0  0  0  0  0
   34.6150   38.0300   26.8590 C   0  0  0  0  0  0  0  0  0  0  0  0
   33.7870   39.2790   26.4910 C   0  0  0  0  0  0  0  0  0  0  0  0
   32.2650   39.0090   26.5910 C   0  0  0  0  0  0  0  0  0  0  0  0
   31.8640   38.7610   28.0460 C   0  0  0  0  0  0  0  0  0  0  0  0
   34.8530   38.5170   28.9580 H   0  0  0  0  0  0  0  0  0  0  0  0
   35.0470   36.7720   28.5680 H   0  0  0  0  0  0  0  0  0  0  0  0
   34.3230   37.1620   26.2140 H   0  0  0  0  0  0  0  0  0  0  0  0
   35.6950   38.2540   26.6670 H   0  0  0  0  0  0  0  0  0  0  0  0
   34.0510   40.1070   27.2180 H   0  0  0  0  0  0  0  0  0  0  0  0
   31.7180   39.9100   26.2120 H   0  0  0  0  0  0  0  0  0  0  0  0
   31.9870   38.1430   25.9440 H   0  0  0  0  0  0  0  0  0  0  0  0
   32.0710   39.6950   28.6370 H   0  0  0  0  0  0  0  0  0  0  0  0
   30.7590   38.5860   28.0940 H   0  0  0  0  0  0  0  0  0  0  0  0
   32.7470   37.4090   28.7520 S   0  0  0  0  0  0  0  0  0  0  0  0
   32.2630   36.1190   28.2100 O   0  0  0  0  0  0  0  0  0  0  0  0
   32.5920   37.4220   30.2330 O   0  0  0  0  0  0  0  0  0  0  0  0
  1  3  2  0  0  0  0
  1  7  1  0  0  0  0
  1 22  1  0  0  0  0
  2 12  1  0  0  0  0
  2 18  2  0  0  0  0
  2 19  1  0  0  0  0
  3 13  1  0  0  0  0
  3 15  1  0  0  0  0
  4 17  2  0  0  0  0
  4 20  1  0  0  0  0
  4 21  1  0  0  0  0
  5  6  1  0  0  0  0
  5 10  1  0  0  0  0
  5 11  2  0  0  0  0
  6 12  2  0  0  0  0
  6 23  1  0  0  0  0
  7  8  2  0  0  0  0
  7 31  1  0  0  0  0
  8  9  1  0  0  0  0
  8 24  1  0  0  0  0
  9 13  2  0  0  0  0
  9 25  1  0  0  0  0
 10 19  1  0  0  0  0
 10 20  2  0  0  0  0
 11 17  1  0  0  0  0
 11 26  1  0  0  0  0
 12 16  1  0  0  0  0
 13 16  1  0  0  0  0
 14 19  1  0  0  0  0
 14 27  1  0  0  0  0
 14 28  1  0  0  0  0
 14 29  1  0  0  0  0
 21 30  1  0  0  0  0
 21 34  1  0  0  0  0
 32 33  1  0  0  0  0
 32 37  1  0  0  0  0
 32 38  1  0  0  0  0
 32 46  1  0  0  0  0
 33 34  1  0  0  0  0
 33 39  1  0  0  0  0
 33 40  1  0  0  0  0
 34 35  1  0  0  0  0
 34 41  1  0  0  0  0
 35 36  1  0  0  0  0
 35 42  1  0  0  0  0
 35 43  1  0  0  0  0
 36 44  1  0  0  0  0
 36 45  1  0  0  0  0
 36 46  1  0  0  0  0
 46 47  2  0  0  0  0
 46 48  2  0  0  0  0
M  END
$$$$
