48
 OpenBabel02232411163D
Structure written by MMmdl.
 42 45  0  0  0  0  0  0  0  0999 V2000
    3.6870  -49.8850    5.9290 O   0  0  0  0  0  0  0  0  0  0  0  0
    2.9430  -49.0470    6.4760 C   0  0  0  0  0  0  0  0  0  0  0  0
    3.2940  -48.0260    7.0810 O   0  5  0  0  0  0  0  0  0  0  0  0
    1.4390  -49.3750    6.3860 C   0  0  0  0  0  0  0  0  0  0  0  0
   -0.3830  -50.7560    6.5460 C   0  0  0  0  0  0  0  0  0  0  0  0
   -1.2760  -51.8170    6.7740 C   0  0  0  0  0  0  0  0  0  0  0  0
   -2.6130  -51.6020    6.4710 C   0  0  0  0  0  0  0  0  0  0  0  0
   -3.0590  -50.3640    5.9490 C   0  0  0  0  0  0  0  0  0  0  0  0
   -2.1820  -49.3120    5.7260 C   0  0  0  0  0  0  0  0  0  0  0  0
   -0.8210  -49.4840    6.0280 C   0  0  0  0  0  0  0  0  0  0  0  0
    0.3480  -48.6320    5.9510 C   0  0  0  0  0  0  0  0  0  0  0  0
    0.3000  -47.2210    5.4830 C   0  0  0  0  0  0  0  0  0  0  0  0
    0.2510  -46.2000    6.6330 C   0  0  0  0  0  0  0  0  0  0  0  0
   -0.9320  -46.3580    7.5810 C   0  0  0  0  0  0  0  0  0  0  0  0
   -2.0990  -45.7870    6.8740 O   0  0  0  0  0  0  0  0  0  0  0  0
   -3.2870  -45.7770    7.5370 C   0  0  0  0  0  0  0  0  0  0  0  0
   -5.8680  -45.6020    8.7750 C   0  0  0  0  0  0  0  0  0  0  0  0
   -4.8410  -46.3440    9.3310 C   0  0  0  0  0  0  0  0  0  0  0  0
   -3.5610  -46.4350    8.7390 C   0  0  0  0  0  0  0  0  0  0  0  0
   -0.9400  -52.7720    7.1760 H   0  0  0  0  0  0  0  0  0  0  0  0
   -3.3430  -52.3960    6.6370 H   0  0  0  0  0  0  0  0  0  0  0  0
   -4.1200  -50.2460    5.7220 H   0  0  0  0  0  0  0  0  0  0  0  0
   -2.5530  -48.3680    5.3260 H   0  0  0  0  0  0  0  0  0  0  0  0
   -0.6170  -47.0840    4.8530 H   0  0  0  0  0  0  0  0  0  0  0  0
    1.1960  -46.9890    4.8570 H   0  0  0  0  0  0  0  0  0  0  0  0
    1.1790  -46.3100    7.2490 H   0  0  0  0  0  0  0  0  0  0  0  0
    0.2150  -45.1730    6.2010 H   0  0  0  0  0  0  0  0  0  0  0  0
   -0.8010  -45.7370    8.4930 H   0  0  0  0  0  0  0  0  0  0  0  0
   -1.1690  -47.4210    7.7960 H   0  0  0  0  0  0  0  0  0  0  0  0
   -2.8210  -47.0420    9.2470 H   0  0  0  0  0  0  0  0  0  0  0  0
   -5.0240  -46.8890   10.2610 H   0  0  0  0  0  0  0  0  0  0  0  0
   -6.8450  -45.5290    9.2400 H   0  0  0  0  0  0  0  0  0  0  0  0
    1.0020  -50.6630    6.7590 N   0  0  0  0  0  0  0  0  0  0  0  0
    1.5700  -51.4330    7.0930 H   0  0  0  0  0  0  0  0  0  0  0  0
   -5.7050  -43.7890    5.5860 C   0  0  0  0  0  0  0  0  0  0  0  0
   -6.4360  -44.1880    6.7370 N   0  0  0  0  0  0  0  0  0  0  0  0
   -5.5940  -44.9560    7.5500 C   0  0  0  0  0  0  0  0  0  0  0  0
   -4.3140  -45.0220    6.9060 C   0  0  0  0  0  0  0  0  0  0  0  0
   -4.4170  -44.2790    5.6780 C   0  0  0  0  0  0  0  0  0  0  0  0
   -7.4140  -44.0080    6.8890 H   0  0  0  0  0  0  0  0  0  0  0  0
   -3.6330  -44.1420    4.9590 H   0  0  0  0  0  0  0  0  0  0  0  0
   -6.1680  -43.1940    4.8200 H   0  0  0  0  0  0  0  0  0  0  0  0
  1  2  2  0  0  0  0
  2  3  1  0  0  0  0
  2  4  1  0  0  0  0
  4 11  2  0  0  0  0
  4 33  1  0  0  0  0
  5  6  2  0  0  0  0
  5 10  1  0  0  0  0
  5 33  1  0  0  0  0
  6  7  1  0  0  0  0
  6 20  1  0  0  0  0
  7  8  2  0  0  0  0
  7 21  1  0  0  0  0
  8  9  1  0  0  0  0
  8 22  1  0  0  0  0
  9 10  2  0  0  0  0
  9 23  1  0  0  0  0
 10 11  1  0  0  0  0
 11 12  1  0  0  0  0
 12 24  1  0  0  0  0
 12 25  1  0  0  0  0
 12 13  1  0  0  0  0
 13 14  1  0  0  0  0
 13 26  1  0  0  0  0
 13 27  1  0  0  0  0
 14 15  1  0  0  0  0
 14 28  1  0  0  0  0
 14 29  1  0  0  0  0
 15 16  1  0  0  0  0
 16 19  2  0  0  0  0
 16 38  1  0  0  0  0
 17 18  2  0  0  0  0
 17 32  1  0  0  0  0
 17 37  1  0  0  0  0
 18 19  1  0  0  0  0
 18 31  1  0  0  0  0
 19 30  1  0  0  0  0
 33 34  1  0  0  0  0
 35 36  1  0  0  0  0
 35 39  2  0  0  0  0
 35 42  1  0  0  0  0
 36 37  1  0  0  0  0
 36 40  1  0  0  0  0
 37 38  2  0  0  0  0
 38 39  1  0  0  0  0
 39 41  1  0  0  0  0
M  CHG  1   3  -1
M  END
$$$$
