2y
                    3D
 Schrodinger Suite 2022-3.
 45 47  0  0  1  0  0  0  0  0999 V2000
   15.9350   10.5320   31.6750 C   0  0  0  0  0  0  0  0  0  0  0  0
   21.3140   12.4930   31.3720 C   0  0  0  0  0  0  0  0  0  0  0  0
   17.2260   11.0420   31.7820 C   0  0  0  0  0  0  0  0  0  0  0  0
   23.8100    8.3520   31.3220 C   0  0  0  0  0  0  0  0  0  0  0  0
   26.2260    8.2690   31.9970 C   0  0  0  0  0  0  0  0  0  0  0  0
   21.4470    9.6720   30.8190 C   0  0  0  0  0  0  0  0  0  0  0  0
   20.1980   10.3630   30.6590 C   0  0  0  0  0  0  0  0  0  0  0  0
   15.2390   10.8250   30.4950 C   0  0  0  0  0  0  0  0  0  0  0  0
   15.7770   11.5910   29.4590 C   0  0  0  0  0  0  0  0  0  0  0  0
   17.0700   12.1070   29.5960 C   0  0  0  0  0  0  0  0  0  0  0  0
   22.5670   10.3510   31.3820 C   0  0  0  0  0  0  0  0  0  0  0  0
   21.6310    8.3130   30.4570 C   0  0  0  0  0  0  0  0  0  0  0  0
   20.1380   11.6770   30.9700 C   0  0  0  0  0  0  0  0  0  0  0  0
   17.7880   11.8430   30.7660 C   0  0  0  0  0  0  0  0  0  0  0  0
   23.6790   12.4250   32.2390 C   0  0  0  0  0  0  0  0  0  0  0  0
   17.9560   10.7590   32.8540 F   0  0  0  0  0  0  0  0  0  0  0  0
   14.0150   10.3240   30.3470 F   0  0  0  0  0  0  0  0  0  0  0  0
   19.0120   12.4980   30.9520 O   0  0  0  0  0  0  0  0  0  0  0  0
   22.7730    7.6460   30.6870 N   0  0  0  0  0  0  0  0  0  0  0  0
   21.3440   13.6980   31.4800 O   0  0  0  0  0  0  0  0  0  0  0  0
   22.5010   11.7240   31.6540 N   0  0  0  0  0  0  0  0  0  0  0  0
   23.7440    9.6920   31.6400 N   0  0  0  0  0  0  0  0  0  0  0  0
   24.9300    7.6210   31.6830 N   0  0  0  0  0  0  0  0  0  0  0  0
   15.2140   11.7760   28.5420 H   0  0  0  0  0  0  0  0  0  0  0  0
   17.5110   12.7010   28.7900 H   0  0  0  0  0  0  0  0  0  0  0  0
   15.5050    9.9050   32.4570 H   0  0  0  0  0  0  0  0  0  0  0  0
   19.3390    9.7940   30.3010 H   0  0  0  0  0  0  0  0  0  0  0  0
   20.8220    7.7640   29.9490 H   0  0  0  0  0  0  0  0  0  0  0  0
   26.9250    7.4260   32.2630 H   0  0  0  0  0  0  0  0  0  0  0  0
   24.1410   11.7930   33.0440 H   0  0  0  0  0  0  0  0  0  0  0  0
   24.4400   12.6210   31.4380 H   0  0  0  0  0  0  0  0  0  0  0  0
   23.3590   13.4040   32.6860 H   0  0  0  0  0  0  0  0  0  0  0  0
   25.0510    6.6910   31.2220 H   0  0  0  0  0  0  0  0  0  0  0  0
   26.1030    8.9150   32.9050 H   0  0  0  0  0  0  0  0  0  0  0  0
   26.8600    9.1330   30.8500 C   0  0  0  0  0  0  0  0  0  0  0  0
   26.4860   10.5130   31.0360 O   0  0  0  0  0  0  0  0  0  0  0  0
   25.5420   10.5690   31.3250 H   0  0  0  0  0  0  0  0  0  0  0  0
   26.3990    8.6880   29.4590 C   0  0  0  0  0  0  0  0  0  0  0  0
   26.5690    7.5960   29.3330 H   0  0  0  0  0  0  0  0  0  0  0  0
   25.3310    8.9170   29.2870 H   0  0  0  0  0  0  0  0  0  0  0  0
   26.9920    9.2180   28.6820 H   0  0  0  0  0  0  0  0  0  0  0  0
   28.3860    9.1270   30.9920 C   0  0  0  0  0  0  0  0  0  0  0  0
   28.7790    8.0900   30.9220 H   0  0  0  0  0  0  0  0  0  0  0  0
   28.6880    9.5530   31.9770 H   0  0  0  0  0  0  0  0  0  0  0  0
   28.8510    9.7450   30.1900 H   0  0  0  0  0  0  0  0  0  0  0  0
  1  3  1  0  0  0  0
  1  8  2  0  0  0  0
  1 26  1  0  0  0  0
  2 13  1  0  0  0  0
  2 20  2  0  0  0  0
  2 21  1  0  0  0  0
  3 14  2  0  0  0  0
  3 16  1  0  0  0  0
  4 19  1  0  0  0  0
  4 22  2  0  0  0  0
  4 23  1  0  0  0  0
  5 23  1  0  0  0  0
  5 29  1  0  0  0  0
  5 34  1  0  0  0  0
  5 35  1  0  0  0  0
  6  7  1  0  0  0  0
  6 11  2  0  0  0  0
  6 12  1  0  0  0  0
  7 13  2  0  0  0  0
  7 27  1  0  0  0  0
  8  9  1  0  0  0  0
  8 17  1  0  0  0  0
  9 10  2  0  0  0  0
  9 24  1  0  0  0  0
 10 14  1  0  0  0  0
 10 25  1  0  0  0  0
 11 21  1  0  0  0  0
 11 22  1  0  0  0  0
 12 19  2  0  0  0  0
 12 28  1  0  0  0  0
 13 18  1  0  0  0  0
 14 18  1  0  0  0  0
 15 21  1  0  0  0  0
 15 30  1  0  0  0  0
 15 31  1  0  0  0  0
 15 32  1  0  0  0  0
 23 33  1  0  0  0  0
 35 36  1  0  0  0  0
 35 38  1  0  0  0  0
 35 42  1  0  0  0  0
 36 37  1  0  0  0  0
 38 39  1  0  0  0  0
 38 40  1  0  0  0  0
 38 41  1  0  0  0  0
 42 43  1  0  0  0  0
 42 44  1  0  0  0  0
 42 45  1  0  0  0  0
M  END
$$$$
