CAT-13e
                    3D
 Schrodinger Suite 2022-3.
 46 49  0  0  1  0  0  0  0  0999 V2000
   11.8060   -2.3470    1.2940 C   0  0  0  0  0  0  0  0  0  0  0  0
   13.0540   -2.7310    0.6060 N   0  0  0  0  0  0  0  0  0  0  0  0
   14.2790   -2.7650    1.2900 C   0  0  0  0  0  0  0  0  0  0  0  0
   14.4290   -2.6960    2.6480 N   0  0  0  0  0  0  0  0  0  0  0  0
   15.3060   -2.9710    0.3900 N   0  3  0  0  0  0  0  0  0  0  0  0
   14.8060   -3.0890   -1.0280 C   0  0  1  0  0  0  0  0  0  0  0  0
   15.3740   -1.9390   -1.8470 C   0  0  0  0  0  0  0  0  0  0  0  0
   16.1660   -2.1530   -2.9790 C   0  0  0  0  0  0  0  0  0  0  0  0
   16.5920   -1.0630   -3.7490 C   0  0  0  0  0  0  0  0  0  0  0  0
   16.2560    0.2410   -3.3870 C   0  0  0  0  0  0  0  0  0  0  0  0
   15.5000    0.4710   -2.2230 C   0  0  0  0  0  0  0  0  0  0  0  0
   15.1880    1.8490   -1.7790 C   0  0  0  0  0  0  0  0  0  0  0  0
   14.5830    2.7720   -2.6440 C   0  0  0  0  0  0  0  0  0  0  0  0
   14.3170    4.0760   -2.2090 C   0  0  0  0  0  0  0  0  0  0  0  0
   14.6230    4.4660   -0.9020 C   0  0  0  0  0  0  0  0  0  0  0  0
   15.1940    3.5250   -0.0430 C   0  0  0  0  0  0  0  0  0  0  0  0
   15.4880    3.9390    1.6030 Cl  0  0  0  0  0  0  0  0  0  0  0  0
   15.5000    2.2310   -0.4640 C   0  0  0  0  0  0  0  0  0  0  0  0
   15.0550   -0.6230   -1.4690 C   0  0  0  0  0  0  0  0  0  0  0  0
   14.9680   -4.4850   -1.6410 C   0  0  0  0  0  0  0  0  0  0  0  0
   16.3150   -5.2390   -1.4630 C   0  0  0  0  0  0  0  0  0  0  0  0
   15.5320   -6.5110   -1.0500 C   0  0  0  0  0  0  0  0  0  0  0  0
   14.2290   -5.6780   -0.9710 C   0  0  0  0  0  0  0  0  0  0  0  0
   13.2650   -2.8550   -0.8420 C   0  0  0  0  0  0  0  0  0  0  0  0
   12.3720   -2.7850   -1.6250 O   0  0  0  0  0  0  0  0  0  0  0  0
   10.9340   -2.4870    0.6020 H   0  0  0  0  0  0  0  0  0  0  0  0
   11.8840   -1.2730    1.6080 H   0  0  0  0  0  0  0  0  0  0  0  0
   11.6580   -2.9910    2.2040 H   0  0  0  0  0  0  0  0  0  0  0  0
   13.7190   -2.1980    3.2420 H   0  0  0  0  0  0  0  0  0  0  0  0
   16.2830   -3.1800    0.7100 H   0  0  0  0  0  0  0  0  0  0  0  0
   16.4620   -3.1590   -3.2780 H   0  0  0  0  0  0  0  0  0  0  0  0
   17.2000   -1.2450   -4.6430 H   0  0  0  0  0  0  0  0  0  0  0  0
   16.5870    1.0810   -4.0060 H   0  0  0  0  0  0  0  0  0  0  0  0
   14.3050    2.4680   -3.6570 H   0  0  0  0  0  0  0  0  0  0  0  0
   13.8530    4.7910   -2.9000 H   0  0  0  0  0  0  0  0  0  0  0  0
   14.4080    5.4810   -0.5600 H   0  0  0  0  0  0  0  0  0  0  0  0
   15.9640    1.5110    0.2090 H   0  0  0  0  0  0  0  0  0  0  0  0
   14.4540   -0.4510   -0.5790 H   0  0  0  0  0  0  0  0  0  0  0  0
   14.6800   -4.4100   -2.7190 H   0  0  0  0  0  0  0  0  0  0  0  0
   16.9490   -4.8300   -0.6550 H   0  0  0  0  0  0  0  0  0  0  0  0
   16.9010   -5.3400   -2.3920 H   0  0  0  0  0  0  0  0  0  0  0  0
   15.5050   -7.2820   -1.8460 H   0  0  0  0  0  0  0  0  0  0  0  0
   15.8420   -6.9670   -0.1000 H   0  0  0  0  0  0  0  0  0  0  0  0
   13.9030   -5.4850    0.0660 H   0  0  0  0  0  0  0  0  0  0  0  0
   13.3890   -6.0790   -1.5690 H   0  0  0  0  0  0  0  0  0  0  0  0
   15.4060   -2.6190    3.0410 H   0  0  0  0  0  0  0  0  0  0  0  0
  1  2  1  0  0  0  0
  1 26  1  0  0  0  0
  1 27  1  0  0  0  0
  1 28  1  0  0  0  0
  2  3  1  0  0  0  0
  2 24  1  0  0  0  0
  3  4  1  0  0  0  0
  3  5  2  0  0  0  0
  4 29  1  0  0  0  0
  4 46  1  0  0  0  0
  5  6  1  0  0  0  0
  5 30  1  0  0  0  0
  6  7  1  0  0  0  0
  6 20  1  0  0  0  0
  6 24  1  0  0  0  0
  7  8  2  0  0  0  0
  7 19  1  0  0  0  0
  8  9  1  0  0  0  0
  8 31  1  0  0  0  0
  9 10  2  0  0  0  0
  9 32  1  0  0  0  0
 10 11  1  0  0  0  0
 10 33  1  0  0  0  0
 11 12  1  0  0  0  0
 11 19  2  0  0  0  0
 12 13  2  0  0  0  0
 12 18  1  0  0  0  0
 13 14  1  0  0  0  0
 13 34  1  0  0  0  0
 14 15  2  0  0  0  0
 14 35  1  0  0  0  0
 15 16  1  0  0  0  0
 15 36  1  0  0  0  0
 16 17  1  0  0  0  0
 16 18  2  0  0  0  0
 18 37  1  0  0  0  0
 19 38  1  0  0  0  0
 20 21  1  0  0  0  0
 20 23  1  0  0  0  0
 20 39  1  0  0  0  0
 21 22  1  0  0  0  0
 21 40  1  0  0  0  0
 21 41  1  0  0  0  0
 22 23  1  0  0  0  0
 22 42  1  0  0  0  0
 22 43  1  0  0  0  0
 23 44  1  0  0  0  0
 23 45  1  0  0  0  0
 24 25  2  0  0  0  0
M  CHG  1   5   1
M  END
$$$$
