ejm_48
                    3D
 Schrodinger Suite 2022-3.
 42 44  0  0  1  0  0  0  0  0999 V2000
   -3.1350   22.6590  -29.6190 C   0  0  0  0  0  0  0  0  0  0  0  0
   -3.5990   21.5550  -28.8860 C   0  0  0  0  0  0  0  0  0  0  0  0
   -2.7860   20.8950  -27.9630 C   0  0  0  0  0  0  0  0  0  0  0  0
   -5.1080   25.4030  -31.3960 C   0  0  0  0  0  0  0  0  0  0  0  0
   -4.0130   23.2350  -30.6920 C   0  0  0  0  0  0  0  0  0  0  0  0
   -5.7960   24.8840  -32.5040 C   0  0  0  0  0  0  0  0  0  0  0  0
   -6.6150   25.7480  -33.2440 C   0  0  0  0  0  0  0  0  0  0  0  0
   -1.8330   23.1050  -29.3620 C   0  0  0  0  0  0  0  0  0  0  0  0
   -1.4810   21.3480  -27.7480 C   0  0  0  0  0  0  0  0  0  0  0  0
   -1.0020   22.4630  -28.4400 C   0  0  0  0  0  0  0  0  0  0  0  0
   -5.2030   21.0030  -29.1320 Cl  0  0  0  0  0  0  0  0  0  0  0  0
   -4.4570   22.5520  -31.5900 O   0  0  0  0  0  0  0  0  0  0  0  0
   -4.2870   24.6100  -30.5430 N   0  0  0  0  0  0  0  0  0  0  0  0
   -6.7690   27.0640  -32.9560 N   0  0  0  0  0  0  0  0  0  0  0  0
   -6.0810   27.5650  -31.8650 C   0  0  0  0  0  0  0  0  0  0  0  0
   -5.2400   26.7700  -31.0730 C   0  0  0  0  0  0  0  0  0  0  0  0
   -6.3190   28.9450  -31.6100 N   0  0  0  0  0  0  0  0  0  0  0  0
   -5.5550   29.7900  -30.7520 C   0  0  0  0  0  0  0  0  0  0  0  0
   -4.6710   29.3240  -30.0610 O   0  0  0  0  0  0  0  0  0  0  0  0
   -1.2110   24.4790  -30.1780 Cl  0  0  0  0  0  0  0  0  0  0  0  0
   -3.1470   20.0280  -27.4040 H   0  0  0  0  0  0  0  0  0  0  0  0
   -5.7230   23.8310  -32.7920 H   0  0  0  0  0  0  0  0  0  0  0  0
   -7.1820   25.3670  -34.1100 H   0  0  0  0  0  0  0  0  0  0  0  0
   -0.8330   20.8310  -27.0320 H   0  0  0  0  0  0  0  0  0  0  0  0
    0.0120   22.8240  -28.2450 H   0  0  0  0  0  0  0  0  0  0  0  0
   -3.8520   25.1040  -29.7420 H   0  0  0  0  0  0  0  0  0  0  0  0
   -4.6950   27.2030  -30.2270 H   0  0  0  0  0  0  0  0  0  0  0  0
   -7.1840   29.3300  -32.0530 H   0  0  0  0  0  0  0  0  0  0  0  0
   -6.9410   31.4000  -31.2880 H   0  0  0  0  0  0  0  0  0  0  0  0
   -5.9340   31.2660  -30.8210 C   0  0  0  0  0  0  0  0  0  0  0  0
   -5.9200   31.9450  -29.4320 C   0  0  0  0  0  0  0  0  0  0  0  0
   -4.5600   32.6590  -29.2760 C   0  0  0  0  0  0  0  0  0  0  0  0
   -3.8340   32.5680  -30.6340 C   0  0  0  0  0  0  0  0  0  0  0  0
   -4.8640   32.0280  -31.6440 C   0  0  0  0  0  0  0  0  0  0  0  0
   -6.0720   31.2290  -28.6030 H   0  0  0  0  0  0  0  0  0  0  0  0
   -6.7450   32.6970  -29.4060 H   0  0  0  0  0  0  0  0  0  0  0  0
   -4.7220   33.7250  -28.9920 H   0  0  0  0  0  0  0  0  0  0  0  0
   -3.9520   32.1770  -28.4780 H   0  0  0  0  0  0  0  0  0  0  0  0
   -3.4620   33.5690  -30.9450 H   0  0  0  0  0  0  0  0  0  0  0  0
   -2.9660   31.8740  -30.5590 H   0  0  0  0  0  0  0  0  0  0  0  0
   -4.3820   31.3800  -32.4010 H   0  0  0  0  0  0  0  0  0  0  0  0
   -5.3780   32.8770  -32.1530 H   0  0  0  0  0  0  0  0  0  0  0  0
  1  2  2  0  0  0  0
  1  5  1  0  0  0  0
  1  8  1  0  0  0  0
  2  3  1  0  0  0  0
  2 11  1  0  0  0  0
  3  9  2  0  0  0  0
  3 21  1  0  0  0  0
  4  6  1  0  0  0  0
  4 13  1  0  0  0  0
  4 16  2  0  0  0  0
  5 12  2  0  0  0  0
  5 13  1  0  0  0  0
  6  7  2  0  0  0  0
  6 22  1  0  0  0  0
  7 14  1  0  0  0  0
  7 23  1  0  0  0  0
  8 10  2  0  0  0  0
  8 20  1  0  0  0  0
  9 10  1  0  0  0  0
  9 24  1  0  0  0  0
 10 25  1  0  0  0  0
 13 26  1  0  0  0  0
 14 15  2  0  0  0  0
 15 16  1  0  0  0  0
 15 17  1  0  0  0  0
 16 27  1  0  0  0  0
 17 18  1  0  0  0  0
 17 28  1  0  0  0  0
 18 19  2  0  0  0  0
 18 30  1  0  0  0  0
 29 30  1  0  0  0  0
 30 31  1  0  0  0  0
 30 34  1  0  0  0  0
 31 32  1  0  0  0  0
 31 35  1  0  0  0  0
 31 36  1  0  0  0  0
 32 33  1  0  0  0  0
 32 37  1  0  0  0  0
 32 38  1  0  0  0  0
 33 34  1  0  0  0  0
 33 39  1  0  0  0  0
 33 40  1  0  0  0  0
 34 41  1  0  0  0  0
 34 42  1  0  0  0  0
M  END
$$$$
