20
 OpenBabel02232411153D
Structure written by MMmdl.
 49 52  0  0  0  0  0  0  0  0999 V2000
    1.8840   28.8170    6.8530 C   0  0  0  0  0  0  0  0  0  0  0  0
   -1.5840   31.4560    7.9580 C   0  0  0  0  0  0  0  0  0  0  0  0
   -0.1740   25.9560    8.9010 C   0  0  0  0  0  0  0  0  0  0  0  0
   -0.9370   25.2620   10.0380 C   0  0  0  0  0  0  0  0  0  0  0  0
   -0.7540   23.7390    9.8420 C   0  0  0  0  0  0  0  0  0  0  0  0
   -1.3570   22.9430   11.0070 C   0  0  0  0  0  0  0  0  0  0  0  0
   -0.7990   23.4110   12.3600 C   0  0  0  0  0  0  0  0  0  0  0  0
   -1.0300   24.9170   12.5600 C   0  0  0  0  0  0  0  0  0  0  0  0
   -0.4150   25.7290   11.4110 C   0  0  0  0  0  0  0  0  0  0  0  0
    5.3710   25.5430    5.7590 C   0  0  0  0  0  0  0  0  0  0  0  0
    5.2180   24.7930    6.9350 C   0  0  0  0  0  0  0  0  0  0  0  0
    4.3780   25.2560    7.9480 C   0  0  0  0  0  0  0  0  0  0  0  0
    3.6730   26.4540    7.8070 C   0  0  0  0  0  0  0  0  0  0  0  0
    1.1480   27.8740    7.5670 N   0  0  0  0  0  0  0  0  0  0  0  0
   -0.0520   28.2160    8.0970 C   0  0  0  0  0  0  0  0  0  0  0  0
   -0.7550   27.3210    8.8100 O   0  0  0  0  0  0  0  0  0  0  0  0
   -0.5610   29.5290    7.9150 C   0  0  0  0  0  0  0  0  0  0  0  0
   -1.7030   30.1930    8.3780 N   0  0  0  0  0  0  0  0  0  0  0  0
   -0.3670   31.6720    7.2190 N   0  0  0  0  0  0  0  0  0  0  0  0
    0.2840   30.4430    7.1620 C   0  0  0  0  0  0  0  0  0  0  0  0
    1.4820   30.1170    6.5800 N   0  0  0  0  0  0  0  0  0  0  0  0
    3.1290   28.4300    6.3750 N   0  0  0  0  0  0  0  0  0  0  0  0
    3.8020   27.1870    6.6160 C   0  0  0  0  0  0  0  0  0  0  0  0
    4.6780   26.7440    5.6010 C   0  0  0  0  0  0  0  0  0  0  0  0
   -2.2790   32.2700    8.1420 H   0  0  0  0  0  0  0  0  0  0  0  0
    0.9130   26.0310    9.1310 H   0  0  0  0  0  0  0  0  0  0  0  0
   -0.3610   25.4880    7.9140 H   0  0  0  0  0  0  0  0  0  0  0  0
   -2.0240   25.5070    9.9760 H   0  0  0  0  0  0  0  0  0  0  0  0
   -1.2480   23.4290    8.8960 H   0  0  0  0  0  0  0  0  0  0  0  0
    0.3360   23.5020    9.7740 H   0  0  0  0  0  0  0  0  0  0  0  0
   -2.4600   23.0770   11.0100 H   0  0  0  0  0  0  0  0  0  0  0  0
   -1.1280   21.8600   10.8740 H   0  0  0  0  0  0  0  0  0  0  0  0
   -1.2970   22.8460   13.1820 H   0  0  0  0  0  0  0  0  0  0  0  0
    0.2950   23.2010   12.3940 H   0  0  0  0  0  0  0  0  0  0  0  0
   -2.1230   25.1200   12.6310 H   0  0  0  0  0  0  0  0  0  0  0  0
   -0.5560   25.2350   13.5170 H   0  0  0  0  0  0  0  0  0  0  0  0
    0.6950   25.6120   11.4530 H   0  0  0  0  0  0  0  0  0  0  0  0
   -0.6600   26.8060   11.5520 H   0  0  0  0  0  0  0  0  0  0  0  0
    5.7480   23.8490    7.0520 H   0  0  0  0  0  0  0  0  0  0  0  0
    4.2600   24.6710    8.8650 H   0  0  0  0  0  0  0  0  0  0  0  0
    3.0290   26.7900    8.6210 H   0  0  0  0  0  0  0  0  0  0  0  0
   -0.0980   32.5490    6.7490 H   0  0  0  0  0  0  0  0  0  0  0  0
    3.6350   29.0780    5.7270 H   0  0  0  0  0  0  0  0  0  0  0  0
    4.8180   27.3340    4.6920 H   0  0  0  0  0  0  0  0  0  0  0  0
    6.2620   25.0120    4.6600 C   0  0  0  0  0  0  0  0  0  0  0  0
    7.1070   24.4090    5.0720 H   0  0  0  0  0  0  0  0  0  0  0  0
    5.6640   24.4060    3.9320 H   0  0  0  0  0  0  0  0  0  0  0  0
    6.8070   26.0640    3.8480 O   0  0  0  0  0  0  0  0  0  0  0  0
    7.4250   26.6140    4.4330 H   0  0  0  0  0  0  0  0  0  0  0  0
  1 14  2  0  0  0  0
  1 21  1  0  0  0  0
  1 22  1  0  0  0  0
  2 18  2  0  0  0  0
  2 19  1  0  0  0  0
  2 25  1  0  0  0  0
  3  4  1  0  0  0  0
  3 16  1  0  0  0  0
  3 26  1  0  0  0  0
  3 27  1  0  0  0  0
  4  5  1  0  0  0  0
  4  9  1  0  0  0  0
  4 28  1  0  0  0  0
  5  6  1  0  0  0  0
  5 29  1  0  0  0  0
  5 30  1  0  0  0  0
  6  7  1  0  0  0  0
  6 31  1  0  0  0  0
  6 32  1  0  0  0  0
  7  8  1  0  0  0  0
  7 33  1  0  0  0  0
  7 34  1  0  0  0  0
  8  9  1  0  0  0  0
  8 35  1  0  0  0  0
  8 36  1  0  0  0  0
  9 37  1  0  0  0  0
  9 38  1  0  0  0  0
 10 11  2  0  0  0  0
 10 24  1  0  0  0  0
 10 45  1  0  0  0  0
 11 12  1  0  0  0  0
 11 39  1  0  0  0  0
 12 13  2  0  0  0  0
 12 40  1  0  0  0  0
 13 23  1  0  0  0  0
 13 41  1  0  0  0  0
 14 15  1  0  0  0  0
 15 16  1  0  0  0  0
 15 17  2  0  0  0  0
 17 18  1  0  0  0  0
 17 20  1  0  0  0  0
 19 20  1  0  0  0  0
 19 42  1  0  0  0  0
 20 21  2  0  0  0  0
 22 23  1  0  0  0  0
 22 43  1  0  0  0  0
 23 24  2  0  0  0  0
 24 44  1  0  0  0  0
 45 46  1  0  0  0  0
 45 47  1  0  0  0  0
 45 48  1  0  0  0  0
 48 49  1  0  0  0  0
M  END
$$$$
