p38a_2u
 OpenBabel02232411163D
Structure written by MMmdl.
 64 68  0  0  0  0  0  0  0  0999 V2000
   38.3020   36.5330   17.1870 C   0  0  0  0  0  0  0  0  0  0  0  0
   34.5470   35.0410   21.2910 C   0  0  0  0  0  0  0  0  0  0  0  0
   37.5450   36.0760   18.2640 C   0  0  0  0  0  0  0  0  0  0  0  0
   33.9470   39.1320   23.8030 C   0  0  0  0  0  0  0  0  0  0  0  0
   34.6550   37.9130   21.4380 C   0  0  0  0  0  0  0  0  0  0  0  0
   35.0980   37.2560   20.2390 C   0  0  0  0  0  0  0  0  0  0  0  0
   37.6330   36.6550   15.9620 C   0  0  0  0  0  0  0  0  0  0  0  0
   36.2890   36.3190   15.7810 C   0  0  0  0  0  0  0  0  0  0  0  0
   35.5550   35.8490   16.8750 C   0  0  0  0  0  0  0  0  0  0  0  0
   34.2170   37.1450   22.5570 C   0  0  0  0  0  0  0  0  0  0  0  0
   34.6550   39.3280   21.5790 C   0  0  0  0  0  0  0  0  0  0  0  0
   35.0780   35.9050   20.1990 C   0  0  0  0  0  0  0  0  0  0  0  0
   36.1890   35.7180   18.1140 C   0  0  0  0  0  0  0  0  0  0  0  0
   38.0990   35.9780   19.4650 F   0  0  0  0  0  0  0  0  0  0  0  0
   35.5020   35.0830   19.1570 O   0  0  0  0  0  0  0  0  0  0  0  0
   34.3190   39.9500   22.7170 N   0  0  0  0  0  0  0  0  0  0  0  0
   34.4540   33.8340   21.2150 O   0  0  0  0  0  0  0  0  0  0  0  0
   34.1230   35.7380   22.4760 N   0  0  0  0  0  0  0  0  0  0  0  0
   33.8800   37.7520   23.7400 N   0  0  0  0  0  0  0  0  0  0  0  0
   33.5750   39.7550   24.9710 N   0  0  0  0  0  0  0  0  0  0  0  0
   39.3510   36.8170   17.3020 H   0  0  0  0  0  0  0  0  0  0  0  0
   35.4460   37.8710   19.4070 H   0  0  0  0  0  0  0  0  0  0  0  0
   35.8010   36.4320   14.8100 H   0  0  0  0  0  0  0  0  0  0  0  0
   34.4940   35.6040   16.7570 H   0  0  0  0  0  0  0  0  0  0  0  0
   34.9400   39.9610   20.7220 H   0  0  0  0  0  0  0  0  0  0  0  0
   33.7220   40.7790   25.0740 H   0  0  0  0  0  0  0  0  0  0  0  0
   38.3040   37.1550   14.9270 F   0  0  0  0  0  0  0  0  0  0  0  0
   32.1970   39.1210   28.4770 C   0  0  0  0  0  0  0  0  0  0  0  0
   32.3770   39.8170   27.1220 C   0  0  0  0  0  0  0  0  0  0  0  0
   33.3400   38.9970   26.2390 C   0  0  0  0  0  0  0  0  0  0  0  0
   34.6700   38.7480   26.9830 C   0  0  0  0  0  0  0  0  0  0  0  0
   34.3880   38.1050   28.3460 C   0  0  0  0  0  0  0  0  0  0  0  0
   33.4640   38.8900   29.1330 O   0  0  0  0  0  0  0  0  0  0  0  0
   31.6660   38.1480   28.3570 H   0  0  0  0  0  0  0  0  0  0  0  0
   31.6750   39.7870   29.2030 H   0  0  0  0  0  0  0  0  0  0  0  0
   32.7860   40.8430   27.2820 H   0  0  0  0  0  0  0  0  0  0  0  0
   31.3910   39.9110   26.6100 H   0  0  0  0  0  0  0  0  0  0  0  0
   32.8610   38.0100   25.9820 H   0  0  0  0  0  0  0  0  0  0  0  0
   35.3170   38.0610   26.3840 H   0  0  0  0  0  0  0  0  0  0  0  0
   35.2160   39.7110   27.1190 H   0  0  0  0  0  0  0  0  0  0  0  0
   33.9750   37.0770   28.2210 H   0  0  0  0  0  0  0  0  0  0  0  0
   35.3010   38.1050   28.9860 H   0  0  0  0  0  0  0  0  0  0  0  0
   34.0400   33.3930   25.5640 C   0  0  0  0  0  0  0  0  0  0  0  0
   34.6070   34.0390   24.2770 C   0  0  0  0  0  0  0  0  0  0  0  0
   33.5470   34.9620   23.6470 C   0  0  0  0  0  0  0  0  0  0  0  0
   32.2920   34.1730   23.2150 C   0  0  0  0  0  0  0  0  0  0  0  0
   32.0890   32.9150   24.0900 C   0  0  0  0  0  0  0  0  0  0  0  0
   34.2220   34.0850   26.4320 H   0  0  0  0  0  0  0  0  0  0  0  0
   34.5890   32.4270   25.7300 H   0  0  0  0  0  0  0  0  0  0  0  0
   34.9000   33.2370   23.5580 H   0  0  0  0  0  0  0  0  0  0  0  0
   35.5180   34.6220   24.5500 H   0  0  0  0  0  0  0  0  0  0  0  0
   33.2340   35.7090   24.4360 H   0  0  0  0  0  0  0  0  0  0  0  0
   31.4020   34.8410   23.3110 H   0  0  0  0  0  0  0  0  0  0  0  0
   32.3590   33.8340   22.1540 H   0  0  0  0  0  0  0  0  0  0  0  0
   30.9960   32.6660   24.0990 H   0  0  0  0  0  0  0  0  0  0  0  0
   32.6540   32.0510   23.6430 H   0  0  0  0  0  0  0  0  0  0  0  0
   32.5620   33.1660   25.4830 N   0  0  0  0  0  0  0  0  0  0  0  0
   31.7950   32.2930   26.7530 S   0  0  0  0  0  0  0  0  0  0  0  0
   30.3410   32.4990   26.6180 O   0  0  0  0  0  0  0  0  0  0  0  0
   32.3170   32.7900   28.0410 O   0  0  0  0  0  0  0  0  0  0  0  0
   32.1770   30.6140   26.5500 C   0  0  0  0  0  0  0  0  0  0  0  0
   31.9270   30.2300   25.5250 H   0  0  0  0  0  0  0  0  0  0  0  0
   33.2660   30.3910   26.6890 H   0  0  0  0  0  0  0  0  0  0  0  0
   31.6240   29.9600   27.2740 H   0  0  0  0  0  0  0  0  0  0  0  0
  1  3  2  0  0  0  0
  1  7  1  0  0  0  0
  1 21  1  0  0  0  0
  2 12  1  0  0  0  0
  2 17  2  0  0  0  0
  2 18  1  0  0  0  0
  3 13  1  0  0  0  0
  3 14  1  0  0  0  0
  4 16  2  0  0  0  0
  4 19  1  0  0  0  0
  4 20  1  0  0  0  0
  5  6  1  0  0  0  0
  5 10  1  0  0  0  0
  5 11  2  0  0  0  0
  6 12  2  0  0  0  0
  6 22  1  0  0  0  0
  7  8  2  0  0  0  0
  7 27  1  0  0  0  0
  8  9  1  0  0  0  0
  8 23  1  0  0  0  0
  9 13  2  0  0  0  0
  9 24  1  0  0  0  0
 10 18  1  0  0  0  0
 10 19  2  0  0  0  0
 11 16  1  0  0  0  0
 11 25  1  0  0  0  0
 12 15  1  0  0  0  0
 13 15  1  0  0  0  0
 18 45  1  0  0  0  0
 20 26  1  0  0  0  0
 20 30  1  0  0  0  0
 28 29  1  0  0  0  0
 28 33  1  0  0  0  0
 28 34  1  0  0  0  0
 28 35  1  0  0  0  0
 29 30  1  0  0  0  0
 29 36  1  0  0  0  0
 29 37  1  0  0  0  0
 30 31  1  0  0  0  0
 30 38  1  0  0  0  0
 31 32  1  0  0  0  0
 31 39  1  0  0  0  0
 31 40  1  0  0  0  0
 32 33  1  0  0  0  0
 32 41  1  0  0  0  0
 32 42  1  0  0  0  0
 43 44  1  0  0  0  0
 43 48  1  0  0  0  0
 43 49  1  0  0  0  0
 43 57  1  0  0  0  0
 44 45  1  0  0  0  0
 44 50  1  0  0  0  0
 44 51  1  0  0  0  0
 45 46  1  0  0  0  0
 45 52  1  0  0  0  0
 46 47  1  0  0  0  0
 46 53  1  0  0  0  0
 46 54  1  0  0  0  0
 47 55  1  0  0  0  0
 47 56  1  0  0  0  0
 47 57  1  0  0  0  0
 57 58  1  0  0  0  0
 58 59  2  0  0  0  0
 58 60  2  0  0  0  0
 58 61  1  0  0  0  0
 61 62  1  0  0  0  0
 61 63  1  0  0  0  0
 61 64  1  0  0  0  0
M  END
$$$$
