p38a_2x
 OpenBabel02232411163D
Structure written by MMmdl.
 43 46  0  0  1  0  0  0  0  0999 V2000
   38.2620   36.5150   17.2020 C   0  0  0  0  0  0  0  0  0  0  0  0
   34.5670   35.1510   21.3350 C   0  0  0  0  0  0  0  0  0  0  0  0
   37.4850   36.0770   18.2710 C   0  0  0  0  0  0  0  0  0  0  0  0
   34.1290   39.2800   23.8160 C   0  0  0  0  0  0  0  0  0  0  0  0
   34.6790   38.0230   21.4270 C   0  0  0  0  0  0  0  0  0  0  0  0
   35.0500   37.3420   20.2160 C   0  0  0  0  0  0  0  0  0  0  0  0
   37.6080   36.6510   15.9700 C   0  0  0  0  0  0  0  0  0  0  0  0
   36.2600   36.3440   15.7760 C   0  0  0  0  0  0  0  0  0  0  0  0
   35.5030   35.8950   16.8640 C   0  0  0  0  0  0  0  0  0  0  0  0
   34.3450   37.2820   22.5990 C   0  0  0  0  0  0  0  0  0  0  0  0
   34.6410   39.4390   21.5280 C   0  0  0  0  0  0  0  0  0  0  0  0
   35.0350   35.9900   20.2000 C   0  0  0  0  0  0  0  0  0  0  0  0
   36.1210   35.7530   18.1100 C   0  0  0  0  0  0  0  0  0  0  0  0
   33.8800   35.1160   23.7570 C   0  0  0  0  0  0  0  0  0  0  0  0
   38.0270   35.9580   19.4760 F   0  0  0  0  0  0  0  0  0  0  0  0
   35.4040   35.1500   19.1520 O   0  0  0  0  0  0  0  0  0  0  0  0
   34.3750   40.0750   22.6770 N   0  0  0  0  0  0  0  0  0  0  0  0
   34.4150   33.9490   21.3060 O   0  0  0  0  0  0  0  0  0  0  0  0
   34.2860   35.8800   22.5440 N   0  0  0  0  0  0  0  0  0  0  0  0
   34.0740   37.9050   23.7970 N   0  0  0  0  0  0  0  0  0  0  0  0
   34.0070   39.9840   25.0010 N   0  0  0  0  0  0  0  0  0  0  0  0
   39.3170   36.7780   17.3260 H   0  0  0  0  0  0  0  0  0  0  0  0
   35.3440   37.9450   19.3540 H   0  0  0  0  0  0  0  0  0  0  0  0
   35.7850   36.4650   14.8000 H   0  0  0  0  0  0  0  0  0  0  0  0
   34.4380   35.6740   16.7330 H   0  0  0  0  0  0  0  0  0  0  0  0
   34.8210   40.0600   20.6350 H   0  0  0  0  0  0  0  0  0  0  0  0
   34.5030   35.4320   24.6360 H   0  0  0  0  0  0  0  0  0  0  0  0
   32.7990   35.3140   23.9870 H   0  0  0  0  0  0  0  0  0  0  0  0
   34.0220   34.0160   23.5860 H   0  0  0  0  0  0  0  0  0  0  0  0
   33.9480   41.0240   24.9350 H   0  0  0  0  0  0  0  0  0  0  0  0
   38.3000   37.1370   14.9420 F   0  0  0  0  0  0  0  0  0  0  0  0
   33.4570   37.4510   27.5700 O   0  0  0  0  0  0  0  0  0  0  0  0
   32.2040   37.4300   26.8280 C   0  0  0  0  0  0  0  0  0  0  0  0
   32.0480   38.8030   26.1600 C   0  0  0  0  0  0  0  0  0  0  0  0
   33.4380   39.4750   26.2750 C   0  0  1  0  0  0  0  0  0  0  0  0
   34.3450   38.4210   26.9650 C   0  0  0  0  0  0  0  0  0  0  0  0
   31.4290   37.2310   27.6000 H   0  0  0  0  0  0  0  0  0  0  0  0
   32.2710   36.6090   26.0820 H   0  0  0  0  0  0  0  0  0  0  0  0
   31.7190   38.6980   25.1020 H   0  0  0  0  0  0  0  0  0  0  0  0
   31.2850   39.4210   26.6870 H   0  0  0  0  0  0  0  0  0  0  0  0
   33.3570   40.3920   26.9310 H   0  0  0  0  0  0  0  0  0  0  0  0
   34.9150   38.8540   27.8160 H   0  0  0  0  0  0  0  0  0  0  0  0
   35.0030   37.8860   26.2470 H   0  0  0  0  0  0  0  0  0  0  0  0
  1  3  2  0  0  0  0
  1  7  1  0  0  0  0
  1 22  1  0  0  0  0
  2 12  1  0  0  0  0
  2 18  2  0  0  0  0
  2 19  1  0  0  0  0
  3 13  1  0  0  0  0
  3 15  1  0  0  0  0
  4 17  2  0  0  0  0
  4 20  1  0  0  0  0
  4 21  1  0  0  0  0
  5  6  1  0  0  0  0
  5 10  1  0  0  0  0
  5 11  2  0  0  0  0
  6 12  2  0  0  0  0
  6 23  1  0  0  0  0
  7  8  2  0  0  0  0
  7 31  1  0  0  0  0
  8  9  1  0  0  0  0
  8 24  1  0  0  0  0
  9 13  2  0  0  0  0
  9 25  1  0  0  0  0
 10 19  1  0  0  0  0
 10 20  2  0  0  0  0
 11 17  1  0  0  0  0
 11 26  1  0  0  0  0
 12 16  1  0  0  0  0
 13 16  1  0  0  0  0
 14 19  1  0  0  0  0
 14 27  1  0  0  0  0
 14 28  1  0  0  0  0
 14 29  1  0  0  0  0
 21 30  1  0  0  0  0
 21 35  1  0  0  0  0
 32 33  1  0  0  0  0
 32 36  1  0  0  0  0
 33 34  1  0  0  0  0
 33 37  1  0  0  0  0
 33 38  1  0  0  0  0
 34 35  1  0  0  0  0
 34 39  1  0  0  0  0
 34 40  1  0  0  0  0
 35 36  1  0  0  0  0
 35 41  1  1  0  0  0
 36 42  1  0  0  0  0
 36 43  1  0  0  0  0
M  END
$$$$
