CAT-13n
 OpenBabel02232411143D
Structure written by MMmdl.
 44 47  0  0  1  0  0  0  0  0999 V2000
   11.5740   -2.4550    1.4020 C   0  0  0  0  0  0  0  0  0  0  0  0
   12.9130   -2.4050    0.7790 N   0  0  0  0  0  0  0  0  0  0  0  0
   14.1040   -2.3860    1.4930 C   0  0  0  0  0  0  0  0  0  0  0  0
   14.2700   -2.4690    2.8440 N   0  0  0  0  0  0  0  0  0  0  0  0
   15.1920   -2.3420    0.6090 N   0  3  0  0  0  0  0  0  0  0  0  0
   14.7340   -2.7460   -0.7750 C   0  0  1  0  0  0  0  0  0  0  0  0
   15.3060   -1.7980   -1.7990 C   0  0  0  0  0  0  0  0  0  0  0  0
   16.0320   -2.2100   -2.9190 C   0  0  0  0  0  0  0  0  0  0  0  0
   16.5140   -1.2390   -3.8090 C   0  0  0  0  0  0  0  0  0  0  0  0
   16.2940    0.1210   -3.5880 C   0  0  0  0  0  0  0  0  0  0  0  0
   15.5750    0.5430   -2.4550 C   0  0  0  0  0  0  0  0  0  0  0  0
   15.3300    1.9730   -2.1590 C   0  0  0  0  0  0  0  0  0  0  0  0
   14.9530    2.8770   -3.1650 C   0  0  0  0  0  0  0  0  0  0  0  0
   14.6230    4.1980   -2.8390 C   0  0  0  0  0  0  0  0  0  0  0  0
   14.6480    4.6320   -1.5100 C   0  0  0  0  0  0  0  0  0  0  0  0
   15.0500    3.7290   -0.5230 C   0  0  0  0  0  0  0  0  0  0  0  0
   15.0270    4.2110    1.1340 Cl  0  0  0  0  0  0  0  0  0  0  0  0
   15.4190    2.4200   -0.8290 C   0  0  0  0  0  0  0  0  0  0  0  0
   15.0660   -0.4280   -1.5840 C   0  0  0  0  0  0  0  0  0  0  0  0
   15.0080   -4.2500   -0.8240 C   0  0  0  0  0  0  0  0  0  0  0  0
   13.9150   -5.0380   -0.5520 N   0  0  0  0  0  0  0  0  0  0  0  0
   14.1540   -6.3410   -0.2530 C   0  0  0  0  0  0  0  0  0  0  0  0
   15.4660   -6.8500   -0.2290 C   0  0  0  0  0  0  0  0  0  0  0  0
   16.5120   -5.9940   -0.6000 C   0  0  0  0  0  0  0  0  0  0  0  0
   16.2900   -4.6840   -0.9130 N   0  0  0  0  0  0  0  0  0  0  0  0
   13.1740   -2.5570   -0.6710 C   0  0  0  0  0  0  0  0  0  0  0  0
   12.3240   -2.5120   -1.4940 O   0  0  0  0  0  0  0  0  0  0  0  0
   10.9520   -3.2410    0.8930 H   0  0  0  0  0  0  0  0  0  0  0  0
   11.6460   -2.7150    2.4910 H   0  0  0  0  0  0  0  0  0  0  0  0
   11.0850   -1.4500    1.2930 H   0  0  0  0  0  0  0  0  0  0  0  0
   15.2510   -2.3630    3.2340 H   0  0  0  0  0  0  0  0  0  0  0  0
   16.1430   -2.6350    0.9650 H   0  0  0  0  0  0  0  0  0  0  0  0
   16.2350   -3.2670   -3.1020 H   0  0  0  0  0  0  0  0  0  0  0  0
   17.0840   -1.5450   -4.6910 H   0  0  0  0  0  0  0  0  0  0  0  0
   16.6860    0.8550   -4.2990 H   0  0  0  0  0  0  0  0  0  0  0  0
   14.8970    2.5490   -4.2080 H   0  0  0  0  0  0  0  0  0  0  0  0
   14.3190    4.8900   -3.6330 H   0  0  0  0  0  0  0  0  0  0  0  0
   14.3350    5.6470   -1.2520 H   0  0  0  0  0  0  0  0  0  0  0  0
   15.7580    1.7400   -0.0460 H   0  0  0  0  0  0  0  0  0  0  0  0
   14.4780   -0.1220   -0.7200 H   0  0  0  0  0  0  0  0  0  0  0  0
   13.2810   -6.9740   -0.0100 H   0  0  0  0  0  0  0  0  0  0  0  0
   15.6430   -7.8910    0.0690 H   0  0  0  0  0  0  0  0  0  0  0  0
   17.5670   -6.3180   -0.6280 H   0  0  0  0  0  0  0  0  0  0  0  0
   13.5610   -2.0540    3.5010 H   0  0  0  0  0  0  0  0  0  0  0  0
  1  2  1  0  0  0  0
  1 28  1  0  0  0  0
  1 29  1  0  0  0  0
  1 30  1  0  0  0  0
  2  3  1  0  0  0  0
  2 26  1  0  0  0  0
  3  4  1  0  0  0  0
  3  5  2  0  0  0  0
  4 31  1  0  0  0  0
  4 44  1  0  0  0  0
  5  6  1  0  0  0  0
  5 32  1  0  0  0  0
  6  7  1  6  0  0  0
  6 20  1  0  0  0  0
  6 26  1  0  0  0  0
  7  8  2  0  0  0  0
  7 19  1  0  0  0  0
  8  9  1  0  0  0  0
  8 33  1  0  0  0  0
  9 10  2  0  0  0  0
  9 34  1  0  0  0  0
 10 11  1  0  0  0  0
 10 35  1  0  0  0  0
 11 12  1  0  0  0  0
 11 19  2  0  0  0  0
 12 13  2  0  0  0  0
 12 18  1  0  0  0  0
 13 14  1  0  0  0  0
 13 36  1  0  0  0  0
 14 15  2  0  0  0  0
 14 37  1  0  0  0  0
 15 16  1  0  0  0  0
 15 38  1  0  0  0  0
 16 17  1  0  0  0  0
 16 18  2  0  0  0  0
 18 39  1  0  0  0  0
 19 40  1  0  0  0  0
 20 21  2  0  0  0  0
 20 25  1  0  0  0  0
 21 22  1  0  0  0  0
 22 23  2  0  0  0  0
 22 41  1  0  0  0  0
 23 24  1  0  0  0  0
 23 42  1  0  0  0  0
 24 25  2  0  0  0  0
 24 43  1  0  0  0  0
 26 27  2  0  0  0  0
M  CHG  1   5   1
M  END
$$$$
