18637-1
 OpenBabel02232411163D
Structure written by MMmdl.
 53 54  0  0  0  0  0  0  0  0999 V2000
   23.2720   10.7390   29.0780 C   0  0  0  0  0  0  0  0  0  0  0  0
   23.5190   10.9940   30.5510 C   0  0  0  0  0  0  0  0  0  0  0  0
   22.2430   11.1070   31.2870 O   0  0  0  0  0  0  0  0  0  0  0  0
   21.5730    9.9810   31.6260 C   0  0  0  0  0  0  0  0  0  0  0  0
   22.0290    8.7820   31.2030 N   0  0  0  0  0  0  0  0  0  0  0  0
   21.2750    7.6590   31.5120 C   0  0  0  0  0  0  0  0  0  0  0  0
   20.1110    7.7250   32.2720 C   0  0  0  0  0  0  0  0  0  0  0  0
   19.6510    8.9870   32.7330 C   0  0  0  0  0  0  0  0  0  0  0  0
   18.4980    9.0560   33.4730 N   0  0  0  0  0  0  0  0  0  0  0  0
   20.3890   10.1690   32.4000 C   0  0  0  0  0  0  0  0  0  0  0  0
   20.0000   11.4760   32.7590 C   0  0  0  0  0  0  0  0  0  0  0  0
   19.7270   12.5740   33.0170 N   0  0  0  0  0  0  0  0  0  0  0  0
   21.8310    6.4920   30.9480 N   0  0  0  0  0  0  0  0  0  0  0  0
   21.2080    5.2260   30.8460 C   0  0  0  0  0  0  0  0  0  0  0  0
   20.1250    4.9950   31.3400 O   0  0  0  0  0  0  0  0  0  0  0  0
   21.9910    4.2290   30.0030 C   0  0  0  0  0  0  0  0  0  0  0  0
   23.3210    3.8700   30.5930 C   0  0  0  0  0  0  0  0  0  0  0  0
   24.4580    4.6750   30.3470 C   0  0  0  0  0  0  0  0  0  0  0  0
   24.1910    5.7600   29.5240 O   0  0  0  0  0  0  0  0  0  0  0  0
   25.2350    6.7540   29.3470 C   0  0  0  0  0  0  0  0  0  0  0  0
   25.7080    4.3660   30.8830 C   0  0  0  0  0  0  0  0  0  0  0  0
   25.8650    3.2180   31.6780 C   0  0  0  0  0  0  0  0  0  0  0  0
   24.7330    2.3830   31.9090 C   0  0  0  0  0  0  0  0  0  0  0  0
   23.4840    2.7190   31.3720 C   0  0  0  0  0  0  0  0  0  0  0  0
   24.9690    1.2770   32.7040 O   0  0  0  0  0  0  0  0  0  0  0  0
   24.0580    0.1560   32.5200 C   0  0  0  0  0  0  0  0  0  0  0  0
   27.1710    2.9150   32.1610 N   0  0  0  0  0  0  0  0  0  0  0  0
   27.4990    2.3750   33.4370 C   0  0  0  0  0  0  0  0  0  0  0  0
   26.6330    2.0170   34.2100 O   0  0  0  0  0  0  0  0  0  0  0  0
   28.9770    2.2930   33.6750 C   0  0  0  0  0  0  0  0  0  0  0  0
   22.8740    9.7110   28.9070 H   0  0  0  0  0  0  0  0  0  0  0  0
   22.5550   11.4760   28.6520 H   0  0  0  0  0  0  0  0  0  0  0  0
   24.2390   10.8330   28.5240 H   0  0  0  0  0  0  0  0  0  0  0  0
   23.9240   12.0170   30.7380 H   0  0  0  0  0  0  0  0  0  0  0  0
   24.1490   10.2010   31.0150 H   0  0  0  0  0  0  0  0  0  0  0  0
   19.5350    6.8260   32.5020 H   0  0  0  0  0  0  0  0  0  0  0  0
   18.1160    9.9510   33.7800 H   0  0  0  0  0  0  0  0  0  0  0  0
   17.9870    8.1960   33.7500 H   0  0  0  0  0  0  0  0  0  0  0  0
   22.7590    6.6260   30.4730 H   0  0  0  0  0  0  0  0  0  0  0  0
   21.3710    3.3050   29.8740 H   0  0  0  0  0  0  0  0  0  0  0  0
   22.1550    4.6910   28.9900 H   0  0  0  0  0  0  0  0  0  0  0  0
   25.5590    7.1580   30.3300 H   0  0  0  0  0  0  0  0  0  0  0  0
   26.0800    6.3080   28.7800 H   0  0  0  0  0  0  0  0  0  0  0  0
   24.7050    7.5300   28.7490 H   0  0  0  0  0  0  0  0  0  0  0  0
   26.5760    4.9990   30.6720 H   0  0  0  0  0  0  0  0  0  0  0  0
   22.6190    2.0740   31.5480 H   0  0  0  0  0  0  0  0  0  0  0  0
   24.5700   -0.6550   33.0900 H   0  0  0  0  0  0  0  0  0  0  0  0
   23.0660    0.3890   32.9650 H   0  0  0  0  0  0  0  0  0  0  0  0
   23.9810   -0.1090   31.4430 H   0  0  0  0  0  0  0  0  0  0  0  0
   27.9420    3.3330   31.6040 H   0  0  0  0  0  0  0  0  0  0  0  0
   29.2100    1.8540   34.6780 H   0  0  0  0  0  0  0  0  0  0  0  0
   29.4830    1.6560   32.9020 H   0  0  0  0  0  0  0  0  0  0  0  0
   29.4570    3.3060   33.6310 H   0  0  0  0  0  0  0  0  0  0  0  0
  1  2  1  0  0  0  0
  1 31  1  0  0  0  0
  1 32  1  0  0  0  0
  1 33  1  0  0  0  0
  2  3  1  0  0  0  0
  2 34  1  0  0  0  0
  2 35  1  0  0  0  0
  3  4  1  0  0  0  0
  4 10  2  0  0  0  0
  4  5  1  0  0  0  0
  5  6  2  0  0  0  0
  6  7  1  0  0  0  0
  6 13  1  0  0  0  0
  7  8  2  0  0  0  0
  7 36  1  0  0  0  0
  8  9  1  0  0  0  0
  8 10  1  0  0  0  0
  9 37  1  0  0  0  0
  9 38  1  0  0  0  0
 10 11  1  0  0  0  0
 11 12  3  0  0  0  0
 13 14  1  0  0  0  0
 13 39  1  0  0  0  0
 14 15  2  0  0  0  0
 14 16  1  0  0  0  0
 16 17  1  0  0  0  0
 16 40  1  0  0  0  0
 16 41  1  0  0  0  0
 17 24  2  0  0  0  0
 17 18  1  0  0  0  0
 18 19  1  0  0  0  0
 18 21  2  0  0  0  0
 19 20  1  0  0  0  0
 20 42  1  0  0  0  0
 20 43  1  0  0  0  0
 20 44  1  0  0  0  0
 21 22  1  0  0  0  0
 21 45  1  0  0  0  0
 22 23  2  0  0  0  0
 22 27  1  0  0  0  0
 23 24  1  0  0  0  0
 23 25  1  0  0  0  0
 24 46  1  0  0  0  0
 25 26  1  0  0  0  0
 26 47  1  0  0  0  0
 26 48  1  0  0  0  0
 26 49  1  0  0  0  0
 27 28  1  0  0  0  0
 27 50  1  0  0  0  0
 28 29  2  0  0  0  0
 28 30  1  0  0  0  0
 30 51  1  0  0  0  0
 30 52  1  0  0  0  0
 30 53  1  0  0  0  0
M  END
$$$$
