CAT-4p
 OpenBabel02232411143D
Structure written by MMmdl.
 45 48  0  0  1  0  0  0  0  0999 V2000
   11.5850   -2.4790    1.4110 C   0  0  0  0  0  0  0  0  0  0  0  0
   12.9170   -2.6860    0.8090 N   0  0  0  0  0  0  0  0  0  0  0  0
   14.1080   -2.5780    1.5270 C   0  0  0  0  0  0  0  0  0  0  0  0
   14.2630   -2.5550    2.8800 N   0  0  0  0  0  0  0  0  0  0  0  0
   15.1900   -2.5910    0.6490 N   0  3  0  0  0  0  0  0  0  0  0  0
   14.7470   -3.0740   -0.7220 C   0  0  2  0  0  0  0  0  0  0  0  0
   15.1250   -4.5430   -0.7430 C   0  0  0  0  0  0  0  0  0  0  0  0
   14.1670   -5.5390   -0.4930 C   0  0  0  0  0  0  0  0  0  0  0  0
   14.5710   -6.8520   -0.2390 C   0  0  0  0  0  0  0  0  0  0  0  0
   15.9280   -7.1910   -0.2700 C   0  0  0  0  0  0  0  0  0  0  0  0
   16.8830   -6.2040   -0.5410 C   0  0  0  0  0  0  0  0  0  0  0  0
   16.4850   -4.8840   -0.7690 C   0  0  0  0  0  0  0  0  0  0  0  0
   15.2650   -2.0990   -1.7580 C   0  0  0  0  0  0  0  0  0  0  0  0
   15.8830   -2.5090   -2.9410 C   0  0  0  0  0  0  0  0  0  0  0  0
   16.3150   -1.5370   -3.8540 C   0  0  0  0  0  0  0  0  0  0  0  0
   16.1400   -0.1760   -3.6030 C   0  0  0  0  0  0  0  0  0  0  0  0
   15.5070    0.2460   -2.4200 C   0  0  0  0  0  0  0  0  0  0  0  0
   15.2720    1.6750   -2.1300 C   0  0  0  0  0  0  0  0  0  0  0  0
   14.8820    2.5820   -3.1430 C   0  0  0  0  0  0  0  0  0  0  0  0
   14.5580    3.8750   -2.8850 N   0  0  0  0  0  0  0  0  0  0  0  0
   14.5990    4.3230   -1.6070 C   0  0  0  0  0  0  0  0  0  0  0  0
   15.0130    3.4830   -0.5540 C   0  0  0  0  0  0  0  0  0  0  0  0
   15.0180    4.0580    1.0580 Cl  0  0  0  0  0  0  0  0  0  0  0  0
   15.3740    2.1610   -0.8160 C   0  0  0  0  0  0  0  0  0  0  0  0
   15.0680   -0.7270   -1.5120 C   0  0  0  0  0  0  0  0  0  0  0  0
   13.1940   -2.8920   -0.6290 C   0  0  0  0  0  0  0  0  0  0  0  0
   12.3360   -2.8890   -1.4510 O   0  0  0  0  0  0  0  0  0  0  0  0
   11.3100   -1.3940    1.3420 H   0  0  0  0  0  0  0  0  0  0  0  0
   10.8300   -3.1010    0.8570 H   0  0  0  0  0  0  0  0  0  0  0  0
   11.5880   -2.7990    2.4870 H   0  0  0  0  0  0  0  0  0  0  0  0
   15.2430   -2.4340    3.2640 H   0  0  0  0  0  0  0  0  0  0  0  0
   16.1440   -2.8540    1.0140 H   0  0  0  0  0  0  0  0  0  0  0  0
   13.1000   -5.3130   -0.4700 H   0  0  0  0  0  0  0  0  0  0  0  0
   13.8160   -7.6130   -0.0160 H   0  0  0  0  0  0  0  0  0  0  0  0
   16.2300   -8.2250   -0.0680 H   0  0  0  0  0  0  0  0  0  0  0  0
   17.9510   -6.4400   -0.5070 H   0  0  0  0  0  0  0  0  0  0  0  0
   17.2320   -4.1010   -0.9140 H   0  0  0  0  0  0  0  0  0  0  0  0
   16.0300   -3.5690   -3.1510 H   0  0  0  0  0  0  0  0  0  0  0  0
   16.8050   -1.8380   -4.7810 H   0  0  0  0  0  0  0  0  0  0  0  0
   16.5040    0.5560   -4.3330 H   0  0  0  0  0  0  0  0  0  0  0  0
   14.8110    2.2570   -4.1950 H   0  0  0  0  0  0  0  0  0  0  0  0
   14.2820    5.3640   -1.4210 H   0  0  0  0  0  0  0  0  0  0  0  0
   15.7200    1.5060   -0.0130 H   0  0  0  0  0  0  0  0  0  0  0  0
   14.5670   -0.4230   -0.5940 H   0  0  0  0  0  0  0  0  0  0  0  0
   13.5430   -2.1130    3.5020 H   0  0  0  0  0  0  0  0  0  0  0  0
  1  2  1  0  0  0  0
  1 28  1  0  0  0  0
  1 29  1  0  0  0  0
  1 30  1  0  0  0  0
  2  3  1  0  0  0  0
  2 26  1  0  0  0  0
  3  4  1  0  0  0  0
  3  5  2  0  0  0  0
  4 31  1  0  0  0  0
  4 45  1  0  0  0  0
  5  6  1  0  0  0  0
  5 32  1  0  0  0  0
  6  7  1  6  0  0  0
  6 13  1  0  0  0  0
  6 26  1  0  0  0  0
  7  8  2  0  0  0  0
  7 12  1  0  0  0  0
  8  9  1  0  0  0  0
  8 33  1  0  0  0  0
  9 10  2  0  0  0  0
  9 34  1  0  0  0  0
 10 11  1  0  0  0  0
 10 35  1  0  0  0  0
 11 12  2  0  0  0  0
 11 36  1  0  0  0  0
 12 37  1  0  0  0  0
 13 14  2  0  0  0  0
 13 25  1  0  0  0  0
 14 15  1  0  0  0  0
 14 38  1  0  0  0  0
 15 16  2  0  0  0  0
 15 39  1  0  0  0  0
 16 17  1  0  0  0  0
 16 40  1  0  0  0  0
 17 18  1  0  0  0  0
 17 25  2  0  0  0  0
 18 19  2  0  0  0  0
 18 24  1  0  0  0  0
 19 20  1  0  0  0  0
 19 41  1  0  0  0  0
 20 21  2  0  0  0  0
 21 22  1  0  0  0  0
 21 42  1  0  0  0  0
 22 23  1  0  0  0  0
 22 24  2  0  0  0  0
 24 43  1  0  0  0  0
 25 44  1  0  0  0  0
 26 27  2  0  0  0  0
M  CHG  1   5   1
M  END
$$$$
