p38a_2r
 OpenBabel02232411163D
Structure written by MMmdl.
 56 59  0  0  0  0  0  0  0  0999 V2000
   38.2290   36.4940   17.2450 C   0  0  0  0  0  0  0  0  0  0  0  0
   34.5960   35.1530   21.4120 C   0  0  0  0  0  0  0  0  0  0  0  0
   37.4460   36.0660   18.3130 C   0  0  0  0  0  0  0  0  0  0  0  0
   34.2890   39.2730   23.9310 C   0  0  0  0  0  0  0  0  0  0  0  0
   34.7390   38.0190   21.5150 C   0  0  0  0  0  0  0  0  0  0  0  0
   35.0530   37.3450   20.2860 C   0  0  0  0  0  0  0  0  0  0  0  0
   37.5810   36.6290   16.0100 C   0  0  0  0  0  0  0  0  0  0  0  0
   36.2310   36.3310   15.8130 C   0  0  0  0  0  0  0  0  0  0  0  0
   35.4670   35.8950   16.9020 C   0  0  0  0  0  0  0  0  0  0  0  0
   34.4680   37.2740   22.7030 C   0  0  0  0  0  0  0  0  0  0  0  0
   34.6940   39.4350   21.6210 C   0  0  0  0  0  0  0  0  0  0  0  0
   35.0360   35.9930   20.2660 C   0  0  0  0  0  0  0  0  0  0  0  0
   36.0780   35.7550   18.1510 C   0  0  0  0  0  0  0  0  0  0  0  0
   37.9860   35.9450   19.5180 F   0  0  0  0  0  0  0  0  0  0  0  0
   35.3470   35.1620   19.1890 O   0  0  0  0  0  0  0  0  0  0  0  0
   34.4580   40.0690   22.7770 N   0  0  0  0  0  0  0  0  0  0  0  0
   34.4140   33.9540   21.3660 O   0  0  0  0  0  0  0  0  0  0  0  0
   34.4070   35.8650   22.6460 N   0  0  0  0  0  0  0  0  0  0  0  0
   34.3020   37.8980   23.9150 N   0  0  0  0  0  0  0  0  0  0  0  0
   34.1740   39.9670   25.1240 N   0  0  0  0  0  0  0  0  0  0  0  0
   39.2870   36.7480   17.3690 H   0  0  0  0  0  0  0  0  0  0  0  0
   35.3110   37.9500   19.4130 H   0  0  0  0  0  0  0  0  0  0  0  0
   35.7620   36.4470   14.8340 H   0  0  0  0  0  0  0  0  0  0  0  0
   34.4010   35.6820   16.7670 H   0  0  0  0  0  0  0  0  0  0  0  0
   34.8380   40.0580   20.7220 H   0  0  0  0  0  0  0  0  0  0  0  0
   34.0630   41.0020   25.0630 H   0  0  0  0  0  0  0  0  0  0  0  0
   38.2820   37.1030   14.9820 F   0  0  0  0  0  0  0  0  0  0  0  0
   33.8150   37.8010   28.2940 C   0  0  0  0  0  0  0  0  0  0  0  0
   34.4600   38.3080   26.9980 C   0  0  0  0  0  0  0  0  0  0  0  0
   33.5910   39.4230   26.3890 C   0  0  0  0  0  0  0  0  0  0  0  0
   32.1360   38.9410   26.2080 C   0  0  0  0  0  0  0  0  0  0  0  0
   31.5980   38.4060   27.5400 C   0  0  0  0  0  0  0  0  0  0  0  0
   32.4510   37.3710   28.0810 O   0  0  0  0  0  0  0  0  0  0  0  0
   33.8250   38.5870   29.0840 H   0  0  0  0  0  0  0  0  0  0  0  0
   34.3030   36.8630   28.6450 H   0  0  0  0  0  0  0  0  0  0  0  0
   34.5570   37.4560   26.2810 H   0  0  0  0  0  0  0  0  0  0  0  0
   35.4810   38.7020   27.2170 H   0  0  0  0  0  0  0  0  0  0  0  0
   33.5950   40.3090   27.0950 H   0  0  0  0  0  0  0  0  0  0  0  0
   31.4950   39.7820   25.8580 H   0  0  0  0  0  0  0  0  0  0  0  0
   32.1010   38.1210   25.4490 H   0  0  0  0  0  0  0  0  0  0  0  0
   31.5020   39.2190   28.2930 H   0  0  0  0  0  0  0  0  0  0  0  0
   30.6370   37.8590   27.3960 H   0  0  0  0  0  0  0  0  0  0  0  0
   33.8800   35.1160   23.8220 C   0  0  0  0  0  0  0  0  0  0  0  0
   34.2430   34.0530   23.7710 H   0  0  0  0  0  0  0  0  0  0  0  0
   34.2930   35.5830   24.7610 H   0  0  0  0  0  0  0  0  0  0  0  0
   32.3150   35.1240   23.8870 C   0  0  0  0  0  0  0  0  0  0  0  0
   31.9150   36.3920   23.3120 O   0  0  0  0  0  0  0  0  0  0  0  0
   31.1270   36.2910   22.7440 H   0  0  0  0  0  0  0  0  0  0  0  0
   31.8520   35.1120   25.3460 C   0  0  0  0  0  0  0  0  0  0  0  0
   32.2540   36.0040   25.8850 H   0  0  0  0  0  0  0  0  0  0  0  0
   30.7420   35.1510   25.4060 H   0  0  0  0  0  0  0  0  0  0  0  0
   32.2020   34.1940   25.8670 H   0  0  0  0  0  0  0  0  0  0  0  0
   31.6910   33.9810   23.0800 C   0  0  0  0  0  0  0  0  0  0  0  0
   30.5810   34.0880   23.0490 H   0  0  0  0  0  0  0  0  0  0  0  0
   32.0780   33.9640   22.0380 H   0  0  0  0  0  0  0  0  0  0  0  0
   31.9200   32.9990   23.5550 H   0  0  0  0  0  0  0  0  0  0  0  0
  1  3  2  0  0  0  0
  1  7  1  0  0  0  0
  1 21  1  0  0  0  0
  2 12  1  0  0  0  0
  2 17  2  0  0  0  0
  2 18  1  0  0  0  0
  3 13  1  0  0  0  0
  3 14  1  0  0  0  0
  4 16  2  0  0  0  0
  4 19  1  0  0  0  0
  4 20  1  0  0  0  0
  5  6  1  0  0  0  0
  5 10  1  0  0  0  0
  5 11  2  0  0  0  0
  6 12  2  0  0  0  0
  6 22  1  0  0  0  0
  7  8  2  0  0  0  0
  7 27  1  0  0  0  0
  8  9  1  0  0  0  0
  8 23  1  0  0  0  0
  9 13  2  0  0  0  0
  9 24  1  0  0  0  0
 10 18  1  0  0  0  0
 10 19  2  0  0  0  0
 11 16  1  0  0  0  0
 11 25  1  0  0  0  0
 12 15  1  0  0  0  0
 13 15  1  0  0  0  0
 18 43  1  0  0  0  0
 20 26  1  0  0  0  0
 20 30  1  0  0  0  0
 28 29  1  0  0  0  0
 28 33  1  0  0  0  0
 28 34  1  0  0  0  0
 28 35  1  0  0  0  0
 29 30  1  0  0  0  0
 29 36  1  0  0  0  0
 29 37  1  0  0  0  0
 30 31  1  0  0  0  0
 30 38  1  0  0  0  0
 31 32  1  0  0  0  0
 31 39  1  0  0  0  0
 31 40  1  0  0  0  0
 32 33  1  0  0  0  0
 32 41  1  0  0  0  0
 32 42  1  0  0  0  0
 43 44  1  0  0  0  0
 43 45  1  0  0  0  0
 43 46  1  0  0  0  0
 46 47  1  0  0  0  0
 46 49  1  0  0  0  0
 46 53  1  0  0  0  0
 47 48  1  0  0  0  0
 49 50  1  0  0  0  0
 49 51  1  0  0  0  0
 49 52  1  0  0  0  0
 53 54  1  0  0  0  0
 53 55  1  0  0  0  0
 53 56  1  0  0  0  0
M  END
$$$$
