43
 OpenBabel02232411163D
Structure written by MMmdl.
 44 47  0  0  0  0  0  0  0  0999 V2000
    3.9760  -48.9610    7.4470 O   0  0  0  0  0  0  0  0  0  0  0  0
    3.4940  -50.0980    7.3300 C   0  0  0  0  0  0  0  0  0  0  0  0
    4.1020  -51.1750    7.4930 O   0  5  0  0  0  0  0  0  0  0  0  0
    2.0150  -50.2140    6.9280 C   0  0  0  0  0  0  0  0  0  0  0  0
   -0.0220  -51.2210    6.7470 C   0  0  0  0  0  0  0  0  0  0  0  0
   -1.1220  -52.0950    6.8410 C   0  0  0  0  0  0  0  0  0  0  0  0
   -2.3260  -51.6660    6.3130 C   0  0  0  0  0  0  0  0  0  0  0  0
   -2.4360  -50.4020    5.6840 C   0  0  0  0  0  0  0  0  0  0  0  0
   -1.3530  -49.5440    5.5780 C   0  0  0  0  0  0  0  0  0  0  0  0
   -0.1110  -49.9180    6.1260 C   0  0  0  0  0  0  0  0  0  0  0  0
    1.1860  -49.2990    6.2750 C   0  0  0  0  0  0  0  0  0  0  0  0
    1.6550  -47.9490    5.8540 C   0  0  0  0  0  0  0  0  0  0  0  0
    0.5920  -46.8570    5.6810 C   0  0  0  0  0  0  0  0  0  0  0  0
   -0.3040  -46.6720    6.9060 C   0  0  0  0  0  0  0  0  0  0  0  0
   -1.4270  -45.9120    6.3280 O   0  0  0  0  0  0  0  0  0  0  0  0
   -2.6180  -45.8210    6.9800 C   0  0  0  0  0  0  0  0  0  0  0  0
   -4.1600  -46.3190    8.7740 C   0  0  0  0  0  0  0  0  0  0  0  0
   -2.9110  -46.4610    8.2260 C   0  0  0  0  0  0  0  0  0  0  0  0
   -1.0330  -53.0700    7.3200 H   0  0  0  0  0  0  0  0  0  0  0  0
   -3.2110  -52.3010    6.3780 H   0  0  0  0  0  0  0  0  0  0  0  0
   -3.4060  -50.1080    5.2790 H   0  0  0  0  0  0  0  0  0  0  0  0
   -1.4860  -48.5890    5.0700 H   0  0  0  0  0  0  0  0  0  0  0  0
    2.1880  -48.0480    4.8730 H   0  0  0  0  0  0  0  0  0  0  0  0
    2.4010  -47.5900    6.6190 H   0  0  0  0  0  0  0  0  0  0  0  0
    1.1050  -45.8930    5.4530 H   0  0  0  0  0  0  0  0  0  0  0  0
   -0.0710  -47.0970    4.8130 H   0  0  0  0  0  0  0  0  0  0  0  0
    0.1310  -46.0260    7.6920 H   0  0  0  0  0  0  0  0  0  0  0  0
   -0.6860  -47.6380    7.2940 H   0  0  0  0  0  0  0  0  0  0  0  0
   -2.1750  -47.0810    8.7240 H   0  0  0  0  0  0  0  0  0  0  0  0
   -3.5700  -45.0580    6.3180 C   0  0  0  0  0  0  0  0  0  0  0  0
   -4.4090  -46.8050    9.7220 H   0  0  0  0  0  0  0  0  0  0  0  0
   -4.8700  -44.9280    6.8720 C   0  0  0  0  0  0  0  0  0  0  0  0
   -5.1750  -45.5660    8.1080 C   0  0  0  0  0  0  0  0  0  0  0  0
   -6.5110  -45.5240    8.6080 C   0  0  0  0  0  0  0  0  0  0  0  0
   -7.5070  -44.9360    7.8700 C   0  0  0  0  0  0  0  0  0  0  0  0
   -7.2020  -44.2740    6.6450 C   0  0  0  0  0  0  0  0  0  0  0  0
   -5.9180  -44.2450    6.1670 C   0  0  0  0  0  0  0  0  0  0  0  0
   -6.7360  -45.9930    9.5670 H   0  0  0  0  0  0  0  0  0  0  0  0
   -8.5410  -44.9880    8.1920 H   0  0  0  0  0  0  0  0  0  0  0  0
   -8.0180  -43.8000    6.0990 H   0  0  0  0  0  0  0  0  0  0  0  0
   -5.6810  -43.7300    5.2360 H   0  0  0  0  0  0  0  0  0  0  0  0
   -3.3460  -44.5860    5.3630 H   0  0  0  0  0  0  0  0  0  0  0  0
    1.2880  -51.3810    7.2140 N   0  0  0  0  0  0  0  0  0  0  0  0
    1.6190  -52.2190    7.6810 H   0  0  0  0  0  0  0  0  0  0  0  0
  1  2  2  0  0  0  0
  2  3  1  0  0  0  0
  2  4  1  0  0  0  0
  4 11  2  0  0  0  0
  4 43  1  0  0  0  0
  5  6  2  0  0  0  0
  5 10  1  0  0  0  0
  5 43  1  0  0  0  0
  6  7  1  0  0  0  0
  6 19  1  0  0  0  0
  7  8  2  0  0  0  0
  7 20  1  0  0  0  0
  8  9  1  0  0  0  0
  8 21  1  0  0  0  0
  9 10  2  0  0  0  0
  9 22  1  0  0  0  0
 10 11  1  0  0  0  0
 11 12  1  0  0  0  0
 12 23  1  0  0  0  0
 12 24  1  0  0  0  0
 12 13  1  0  0  0  0
 13 14  1  0  0  0  0
 13 25  1  0  0  0  0
 13 26  1  0  0  0  0
 14 15  1  0  0  0  0
 14 27  1  0  0  0  0
 14 28  1  0  0  0  0
 15 16  1  0  0  0  0
 16 18  2  0  0  0  0
 16 30  1  0  0  0  0
 17 18  1  0  0  0  0
 17 31  1  0  0  0  0
 17 33  2  0  0  0  0
 18 29  1  0  0  0  0
 30 32  2  0  0  0  0
 30 42  1  0  0  0  0
 32 33  1  0  0  0  0
 32 37  1  0  0  0  0
 33 34  1  0  0  0  0
 34 35  2  0  0  0  0
 34 38  1  0  0  0  0
 35 36  1  0  0  0  0
 35 39  1  0  0  0  0
 36 37  2  0  0  0  0
 36 40  1  0  0  0  0
 37 41  1  0  0  0  0
 43 44  1  0  0  0  0
M  CHG  1   3  -1
M  END
$$$$
