18639-1
 OpenBabel02232411163D
Structure written by MMmdl.
 48 49  0  0  0  0  0  0  0  0999 V2000
   23.1980   10.7940   29.0610 C   0  0  0  0  0  0  0  0  0  0  0  0
   23.4780   11.0410   30.5290 C   0  0  0  0  0  0  0  0  0  0  0  0
   22.2150   11.1520   31.2890 O   0  0  0  0  0  0  0  0  0  0  0  0
   21.5550   10.0240   31.6360 C   0  0  0  0  0  0  0  0  0  0  0  0
   22.0250    8.8260   31.2180 N   0  0  0  0  0  0  0  0  0  0  0  0
   21.2800    7.7010   31.5340 C   0  0  0  0  0  0  0  0  0  0  0  0
   20.1140    7.7560   32.2880 C   0  0  0  0  0  0  0  0  0  0  0  0
   19.6420    9.0160   32.7450 C   0  0  0  0  0  0  0  0  0  0  0  0
   18.4870    9.0740   33.4830 N   0  0  0  0  0  0  0  0  0  0  0  0
   20.3710   10.2030   32.4110 C   0  0  0  0  0  0  0  0  0  0  0  0
   19.9740   11.5080   32.7690 C   0  0  0  0  0  0  0  0  0  0  0  0
   19.7000   12.6060   33.0230 N   0  0  0  0  0  0  0  0  0  0  0  0
   21.8580    6.5330   30.9830 N   0  0  0  0  0  0  0  0  0  0  0  0
   21.2570    5.2620   30.8860 C   0  0  0  0  0  0  0  0  0  0  0  0
   20.1610    5.0140   31.3420 O   0  0  0  0  0  0  0  0  0  0  0  0
   22.0830    4.2640   30.0820 C   0  0  0  0  0  0  0  0  0  0  0  0
   23.4560    4.0060   30.6290 C   0  0  0  0  0  0  0  0  0  0  0  0
   24.5450    4.8730   30.2980 C   0  0  0  0  0  0  0  0  0  0  0  0
   24.1760    5.9160   29.4580 O   0  0  0  0  0  0  0  0  0  0  0  0
   25.1190    7.0130   29.2950 C   0  0  0  0  0  0  0  0  0  0  0  0
   25.8300    4.6400   30.7630 C   0  0  0  0  0  0  0  0  0  0  0  0
   26.0750    3.5290   31.5970 C   0  0  0  0  0  0  0  0  0  0  0  0
   27.4330    3.2840   32.0890 N   0  3  0  0  0  0  0  0  0  0  0  0
   27.5790    2.4980   33.0130 O   0  5  0  0  0  0  0  0  0  0  0  0
   28.3650    3.8690   31.5510 O   0  0  0  0  0  0  0  0  0  0  0  0
   25.0100    2.6600   31.9320 C   0  0  0  0  0  0  0  0  0  0  0  0
   23.7100    2.9050   31.4310 C   0  0  0  0  0  0  0  0  0  0  0  0
   25.3700    1.6270   32.7440 O   0  0  0  0  0  0  0  0  0  0  0  0
   24.3790    0.5890   33.0010 C   0  0  0  0  0  0  0  0  0  0  0  0
   24.1590   10.8430   28.4910 H   0  0  0  0  0  0  0  0  0  0  0  0
   22.5090   11.5620   28.6450 H   0  0  0  0  0  0  0  0  0  0  0  0
   22.7500    9.7860   28.9000 H   0  0  0  0  0  0  0  0  0  0  0  0
   23.8890   12.0630   30.7140 H   0  0  0  0  0  0  0  0  0  0  0  0
   24.1130   10.2430   30.9770 H   0  0  0  0  0  0  0  0  0  0  0  0
   19.5460    6.8520   32.5150 H   0  0  0  0  0  0  0  0  0  0  0  0
   17.9820    8.2080   33.7500 H   0  0  0  0  0  0  0  0  0  0  0  0
   18.0950    9.9640   33.7880 H   0  0  0  0  0  0  0  0  0  0  0  0
   22.7790    6.6810   30.4990 H   0  0  0  0  0  0  0  0  0  0  0  0
   21.5150    3.2960   30.0300 H   0  0  0  0  0  0  0  0  0  0  0  0
   22.1820    4.6740   29.0370 H   0  0  0  0  0  0  0  0  0  0  0  0
   25.4400    7.4050   30.2840 H   0  0  0  0  0  0  0  0  0  0  0  0
   25.9730    6.6680   28.6740 H   0  0  0  0  0  0  0  0  0  0  0  0
   24.4920    7.7580   28.7540 H   0  0  0  0  0  0  0  0  0  0  0  0
   26.6640    5.2960   30.4840 H   0  0  0  0  0  0  0  0  0  0  0  0
   22.9000    2.2130   31.6750 H   0  0  0  0  0  0  0  0  0  0  0  0
   24.9730   -0.1390   33.6040 H   0  0  0  0  0  0  0  0  0  0  0  0
   23.5360    1.0040   33.5950 H   0  0  0  0  0  0  0  0  0  0  0  0
   24.0430    0.1340   32.0440 H   0  0  0  0  0  0  0  0  0  0  0  0
  1  2  1  0  0  0  0
  1 30  1  0  0  0  0
  1 31  1  0  0  0  0
  1 32  1  0  0  0  0
  2  3  1  0  0  0  0
  2 33  1  0  0  0  0
  2 34  1  0  0  0  0
  3  4  1  0  0  0  0
  4 10  2  0  0  0  0
  4  5  1  0  0  0  0
  5  6  2  0  0  0  0
  6  7  1  0  0  0  0
  6 13  1  0  0  0  0
  7  8  2  0  0  0  0
  7 35  1  0  0  0  0
  8  9  1  0  0  0  0
  8 10  1  0  0  0  0
  9 36  1  0  0  0  0
  9 37  1  0  0  0  0
 10 11  1  0  0  0  0
 11 12  3  0  0  0  0
 13 14  1  0  0  0  0
 13 38  1  0  0  0  0
 14 15  2  0  0  0  0
 14 16  1  0  0  0  0
 16 17  1  0  0  0  0
 16 39  1  0  0  0  0
 16 40  1  0  0  0  0
 17 27  2  0  0  0  0
 17 18  1  0  0  0  0
 18 19  1  0  0  0  0
 18 21  2  0  0  0  0
 19 20  1  0  0  0  0
 20 41  1  0  0  0  0
 20 42  1  0  0  0  0
 20 43  1  0  0  0  0
 21 22  1  0  0  0  0
 21 44  1  0  0  0  0
 22 23  1  0  0  0  0
 22 26  2  0  0  0  0
 23 24  1  0  0  0  0
 23 25  2  0  0  0  0
 26 27  1  0  0  0  0
 26 28  1  0  0  0  0
 27 45  1  0  0  0  0
 28 29  1  0  0  0  0
 29 46  1  0  0  0  0
 29 47  1  0  0  0  0
 29 48  1  0  0  0  0
M  CHG  2  23   1  24  -1
M  END
$$$$
