p38a_3fmh
 OpenBabel02232411163D
Structure written by MMmdl.
 46 49  0  0  1  0  0  0  0  0999 V2000
   38.2850   37.1390   14.8700 F   0  0  0  0  0  0  0  0  0  0  0  0
   37.6650   36.5920   15.9130 C   0  0  0  0  0  0  0  0  0  0  0  0
   38.3130   36.5910   17.1510 C   0  0  0  0  0  0  0  0  0  0  0  0
   37.6240   36.1220   18.2750 C   0  0  0  0  0  0  0  0  0  0  0  0
   36.3770   36.0790   15.7150 C   0  0  0  0  0  0  0  0  0  0  0  0
   35.7270   35.5810   16.8400 C   0  0  0  0  0  0  0  0  0  0  0  0
   34.5180   35.0460   16.7390 F   0  0  0  0  0  0  0  0  0  0  0  0
   36.3310   35.6170   18.1130 C   0  0  0  0  0  0  0  0  0  0  0  0
   35.6050   35.0050   19.1450 O   0  0  0  0  0  0  0  0  0  0  0  0
   35.1850   35.8540   20.1660 C   0  0  0  0  0  0  0  0  0  0  0  0
   34.6010   35.0190   21.2520 C   0  0  0  0  0  0  0  0  0  0  0  0
   34.3690   33.8330   21.1790 O   0  0  0  0  0  0  0  0  0  0  0  0
   34.3080   35.7400   22.4620 N   0  0  0  0  0  0  0  0  0  0  0  0
   33.8740   34.9860   23.6720 C   0  0  0  0  0  0  0  0  0  0  0  0
   34.4010   37.1390   22.5310 C   0  0  0  0  0  0  0  0  0  0  0  0
   34.0830   37.7540   23.7180 N   0  0  0  0  0  0  0  0  0  0  0  0
   35.2450   37.2050   20.2000 C   0  0  0  0  0  0  0  0  0  0  0  0
   34.8060   37.8870   21.3870 C   0  0  0  0  0  0  0  0  0  0  0  0
   34.7820   39.3030   21.5030 C   0  0  0  0  0  0  0  0  0  0  0  0
   34.4670   39.9360   22.6440 N   0  0  0  0  0  0  0  0  0  0  0  0
   34.1440   39.1300   23.7540 C   0  0  0  0  0  0  0  0  0  0  0  0
   33.7960   39.7980   24.9110 N   0  0  0  0  0  0  0  0  0  0  0  0
   33.7440   39.1810   26.2690 C   0  0  2  0  0  0  0  0  0  0  0  0
   35.0690   38.5370   26.6750 C   0  0  0  0  0  0  0  0  0  0  0  0
   32.5550   38.1760   26.3220 C   0  0  0  0  0  0  0  0  0  0  0  0
   32.0710   38.0060   27.7120 N   0  0  0  0  0  0  0  0  0  0  0  0
   31.3760   38.9630   28.3880 N   0  0  0  0  0  0  0  0  0  0  0  0
   31.1580   38.4150   29.6170 C   0  0  0  0  0  0  0  0  0  0  0  0
   31.7350   37.1180   29.6540 N   0  0  0  0  0  0  0  0  0  0  0  0
   32.2800   36.9000   28.4980 N   0  0  0  0  0  0  0  0  0  0  0  0
   39.3290   36.9810   17.2550 H   0  0  0  0  0  0  0  0  0  0  0  0
   38.0920   36.1790   19.2610 H   0  0  0  0  0  0  0  0  0  0  0  0
   35.8980   36.0940   14.7340 H   0  0  0  0  0  0  0  0  0  0  0  0
   34.5230   35.2660   24.5470 H   0  0  0  0  0  0  0  0  0  0  0  0
   32.8090   35.2440   23.9210 H   0  0  0  0  0  0  0  0  0  0  0  0
   33.9570   33.8830   23.4950 H   0  0  0  0  0  0  0  0  0  0  0  0
   35.6320   37.8080   19.3760 H   0  0  0  0  0  0  0  0  0  0  0  0
   35.0300   39.9300   20.6320 H   0  0  0  0  0  0  0  0  0  0  0  0
   33.8930   40.8340   24.9340 H   0  0  0  0  0  0  0  0  0  0  0  0
   33.5250   40.0480   26.9640 H   0  0  0  0  0  0  0  0  0  0  0  0
   35.0080   38.1670   27.7240 H   0  0  0  0  0  0  0  0  0  0  0  0
   35.3220   37.6720   26.0170 H   0  0  0  0  0  0  0  0  0  0  0  0
   35.8900   39.2860   26.6160 H   0  0  0  0  0  0  0  0  0  0  0  0
   31.7070   38.5630   25.6870 H   0  0  0  0  0  0  0  0  0  0  0  0
   32.8770   37.1670   25.9310 H   0  0  0  0  0  0  0  0  0  0  0  0
   30.6290   38.8830   30.4460 H   0  0  0  0  0  0  0  0  0  0  0  0
  1  2  1  0  0  0  0
  2  3  2  0  0  0  0
  2  5  1  0  0  0  0
  3  4  1  0  0  0  0
  3 31  1  0  0  0  0
  4  8  2  0  0  0  0
  4 32  1  0  0  0  0
  5  6  2  0  0  0  0
  5 33  1  0  0  0  0
  6  7  1  0  0  0  0
  6  8  1  0  0  0  0
  8  9  1  0  0  0  0
  9 10  1  0  0  0  0
 10 11  1  0  0  0  0
 10 17  2  0  0  0  0
 11 12  2  0  0  0  0
 11 13  1  0  0  0  0
 13 14  1  0  0  0  0
 13 15  1  0  0  0  0
 14 34  1  0  0  0  0
 14 35  1  0  0  0  0
 14 36  1  0  0  0  0
 15 16  2  0  0  0  0
 15 18  1  0  0  0  0
 16 21  1  0  0  0  0
 17 18  1  0  0  0  0
 17 37  1  0  0  0  0
 18 19  2  0  0  0  0
 19 20  1  0  0  0  0
 19 38  1  0  0  0  0
 20 21  2  0  0  0  0
 21 22  1  0  0  0  0
 22 23  1  0  0  0  0
 22 39  1  0  0  0  0
 23 24  1  0  0  0  0
 23 25  1  0  0  0  0
 23 40  1  6  0  0  0
 24 41  1  0  0  0  0
 24 42  1  0  0  0  0
 24 43  1  0  0  0  0
 25 26  1  0  0  0  0
 25 44  1  0  0  0  0
 25 45  1  0  0  0  0
 26 27  1  0  0  0  0
 26 30  1  0  0  0  0
 27 28  2  0  0  0  0
 28 29  1  0  0  0  0
 28 46  1  0  0  0  0
 29 30  2  0  0  0  0
M  END
$$$$
