p38a_3fly
 OpenBabel02232411163D
Structure written by MMmdl.
 41 43  0  0  0  0  0  0  0  0999 V2000
   34.6070   39.4060   21.4850 C   0  0  0  0  0  0  0  0  0  0  0  0
   34.0670   37.2460   22.4460 C   0  0  0  0  0  0  0  0  0  0  0  0
   34.2360   40.0330   22.6090 N   0  0  0  0  0  0  0  0  0  0  0  0
   34.5720   37.9930   21.3410 C   0  0  0  0  0  0  0  0  0  0  0  0
   35.0310   37.3190   20.1580 C   0  0  0  0  0  0  0  0  0  0  0  0
   34.9800   35.9670   20.1190 C   0  0  0  0  0  0  0  0  0  0  0  0
   34.4210   35.1190   21.2040 C   0  0  0  0  0  0  0  0  0  0  0  0
   33.7720   39.2300   23.6780 C   0  0  0  0  0  0  0  0  0  0  0  0
   32.7240   39.3330   26.0160 C   0  0  0  0  0  0  0  0  0  0  0  0
   31.3190   38.8570   25.6240 C   0  0  0  0  0  0  0  0  0  0  0  0
   33.5370   38.2420   26.7180 C   0  0  0  0  0  0  0  0  0  0  0  0
   36.1250   35.7550   18.0570 C   0  0  0  0  0  0  0  0  0  0  0  0
   35.5160   35.9210   16.8110 C   0  0  0  0  0  0  0  0  0  0  0  0
   36.2820   36.3890   15.7370 C   0  0  0  0  0  0  0  0  0  0  0  0
   37.6300   36.6870   15.9460 C   0  0  0  0  0  0  0  0  0  0  0  0
   38.2750   36.5290   17.1810 C   0  0  0  0  0  0  0  0  0  0  0  0
   37.4880   36.0750   18.2360 C   0  0  0  0  0  0  0  0  0  0  0  0
   38.3310   37.1860   14.9310 F   0  0  0  0  0  0  0  0  0  0  0  0
   38.0160   35.9410   19.4450 F   0  0  0  0  0  0  0  0  0  0  0  0
   35.4060   35.1320   19.0860 O   0  0  0  0  0  0  0  0  0  0  0  0
   34.3170   33.9120   21.1700 O   0  0  0  0  0  0  0  0  0  0  0  0
   33.9800   35.8450   22.3650 N   0  0  0  0  0  0  0  0  0  0  0  0
   33.4280   35.0890   23.5230 C   0  0  0  0  0  0  0  0  0  0  0  0
   33.6620   37.8560   23.6070 N   0  0  0  0  0  0  0  0  0  0  0  0
   33.4610   39.8960   24.8360 N   0  0  0  0  0  0  0  0  0  0  0  0
   34.9430   40.0330   20.6440 H   0  0  0  0  0  0  0  0  0  0  0  0
   35.4150   37.9240   19.3350 H   0  0  0  0  0  0  0  0  0  0  0  0
   32.6220   40.2140   26.7200 H   0  0  0  0  0  0  0  0  0  0  0  0
   30.7770   39.6510   25.0670 H   0  0  0  0  0  0  0  0  0  0  0  0
   31.3640   37.9370   24.9980 H   0  0  0  0  0  0  0  0  0  0  0  0
   30.7460   38.6140   26.5490 H   0  0  0  0  0  0  0  0  0  0  0  0
   34.5860   38.5770   26.8800 H   0  0  0  0  0  0  0  0  0  0  0  0
   33.0760   38.0240   27.7100 H   0  0  0  0  0  0  0  0  0  0  0  0
   33.5490   37.2980   26.1250 H   0  0  0  0  0  0  0  0  0  0  0  0
   34.4520   35.7050   16.6670 H   0  0  0  0  0  0  0  0  0  0  0  0
   35.8140   36.5310   14.7600 H   0  0  0  0  0  0  0  0  0  0  0  0
   39.3290   36.7870   17.3160 H   0  0  0  0  0  0  0  0  0  0  0  0
   33.3680   33.9950   23.2820 H   0  0  0  0  0  0  0  0  0  0  0  0
   34.0840   35.2310   24.4240 H   0  0  0  0  0  0  0  0  0  0  0  0
   32.3990   35.4650   23.7730 H   0  0  0  0  0  0  0  0  0  0  0  0
   33.5640   40.9290   24.8630 H   0  0  0  0  0  0  0  0  0  0  0  0
  1  3  2  0  0  0  0
  1  4  1  0  0  0  0
  1 26  1  0  0  0  0
  2  4  2  0  0  0  0
  2 22  1  0  0  0  0
  2 24  1  0  0  0  0
  3  8  1  0  0  0  0
  4  5  1  0  0  0  0
  5  6  2  0  0  0  0
  5 27  1  0  0  0  0
  6  7  1  0  0  0  0
  6 20  1  0  0  0  0
  7 21  2  0  0  0  0
  7 22  1  0  0  0  0
  8 24  2  0  0  0  0
  8 25  1  0  0  0  0
  9 10  1  0  0  0  0
  9 11  1  0  0  0  0
  9 25  1  0  0  0  0
  9 28  1  0  0  0  0
 10 29  1  0  0  0  0
 10 30  1  0  0  0  0
 10 31  1  0  0  0  0
 11 32  1  0  0  0  0
 11 33  1  0  0  0  0
 11 34  1  0  0  0  0
 12 13  2  0  0  0  0
 12 17  1  0  0  0  0
 12 20  1  0  0  0  0
 13 14  1  0  0  0  0
 13 35  1  0  0  0  0
 14 15  2  0  0  0  0
 14 36  1  0  0  0  0
 15 16  1  0  0  0  0
 15 18  1  0  0  0  0
 16 17  2  0  0  0  0
 16 37  1  0  0  0  0
 17 19  1  0  0  0  0
 22 23  1  0  0  0  0
 23 38  1  0  0  0  0
 23 39  1  0  0  0  0
 23 40  1  0  0  0  0
 25 41  1  0  0  0  0
M  END
$$$$
