p38a_2n
 OpenBabel02232411163D
Structure written by MMmdl.
 53 56  0  0  0  0  0  0  0  0999 V2000
   36.3780   36.0610   15.7680 C   0  0  0  0  0  0  0  0  0  0  0  0
   34.5750   35.0110   21.3060 C   0  0  0  0  0  0  0  0  0  0  0  0
   35.7150   35.5800   16.8930 C   0  0  0  0  0  0  0  0  0  0  0  0
   34.0660   39.0920   23.8550 C   0  0  0  0  0  0  0  0  0  0  0  0
   34.7720   37.8730   21.4840 C   0  0  0  0  0  0  0  0  0  0  0  0
   35.2190   37.2120   20.2870 C   0  0  0  0  0  0  0  0  0  0  0  0
   37.6690   36.5660   15.9720 C   0  0  0  0  0  0  0  0  0  0  0  0
   38.3070   36.5710   17.2160 C   0  0  0  0  0  0  0  0  0  0  0  0
   37.6050   36.1180   18.3390 C   0  0  0  0  0  0  0  0  0  0  0  0
   34.3520   37.1100   22.6130 C   0  0  0  0  0  0  0  0  0  0  0  0
   34.7450   39.2880   21.6190 C   0  0  0  0  0  0  0  0  0  0  0  0
   35.1600   35.8610   20.2320 C   0  0  0  0  0  0  0  0  0  0  0  0
   36.3070   35.6280   18.1720 C   0  0  0  0  0  0  0  0  0  0  0  0
   34.5050   35.0490   16.7870 F   0  0  0  0  0  0  0  0  0  0  0  0
   35.5700   35.0230   19.1980 O   0  0  0  0  0  0  0  0  0  0  0  0
   34.4050   39.9090   22.7580 N   0  0  0  0  0  0  0  0  0  0  0  0
   34.3680   33.8210   21.2160 O   0  0  0  0  0  0  0  0  0  0  0  0
   34.2670   35.7080   22.5270 N   0  0  0  0  0  0  0  0  0  0  0  0
   34.0270   37.7110   23.8030 N   0  0  0  0  0  0  0  0  0  0  0  0
   33.6830   39.7230   25.0180 N   0  0  0  0  0  0  0  0  0  0  0  0
   35.9070   36.0690   14.7830 H   0  0  0  0  0  0  0  0  0  0  0  0
   35.6060   37.8290   19.4730 H   0  0  0  0  0  0  0  0  0  0  0  0
   39.3260   36.9520   17.3220 H   0  0  0  0  0  0  0  0  0  0  0  0
   38.0660   36.1770   19.3270 H   0  0  0  0  0  0  0  0  0  0  0  0
   35.0090   39.9250   20.7590 H   0  0  0  0  0  0  0  0  0  0  0  0
   33.7940   40.7540   25.0950 H   0  0  0  0  0  0  0  0  0  0  0  0
   38.3000   37.1010   14.9300 F   0  0  0  0  0  0  0  0  0  0  0  0
   32.4170   39.0730   28.5630 C   0  0  0  0  0  0  0  0  0  0  0  0
   32.4800   39.7070   27.1680 C   0  0  0  0  0  0  0  0  0  0  0  0
   33.5560   38.9970   26.3180 C   0  0  0  0  0  0  0  0  0  0  0  0
   34.9100   38.9910   27.0630 C   0  0  0  0  0  0  0  0  0  0  0  0
   34.7330   38.3960   28.4650 C   0  0  0  0  0  0  0  0  0  0  0  0
   33.7070   39.0870   29.2150 O   0  0  0  0  0  0  0  0  0  0  0  0
   32.0480   38.0230   28.5070 H   0  0  0  0  0  0  0  0  0  0  0  0
   31.7950   39.6870   29.2550 H   0  0  0  0  0  0  0  0  0  0  0  0
   32.7260   40.7910   27.2620 H   0  0  0  0  0  0  0  0  0  0  0  0
   31.4860   39.6150   26.6670 H   0  0  0  0  0  0  0  0  0  0  0  0
   33.2290   37.9400   26.1160 H   0  0  0  0  0  0  0  0  0  0  0  0
   35.6520   38.3810   26.4950 H   0  0  0  0  0  0  0  0  0  0  0  0
   35.2990   40.0350   27.1410 H   0  0  0  0  0  0  0  0  0  0  0  0
   34.4700   37.3140   28.4080 H   0  0  0  0  0  0  0  0  0  0  0  0
   35.6380   38.5660   29.0930 H   0  0  0  0  0  0  0  0  0  0  0  0
   33.7520   34.9140   23.6940 C   0  0  0  0  0  0  0  0  0  0  0  0
   34.0970   33.8520   23.5710 H   0  0  0  0  0  0  0  0  0  0  0  0
   34.1960   35.3380   24.6370 H   0  0  0  0  0  0  0  0  0  0  0  0
   32.2190   34.9660   23.7740 C   0  0  0  0  0  0  0  0  0  0  0  0
   31.8930   35.9940   24.0760 H   0  0  0  0  0  0  0  0  0  0  0  0
   31.7630   34.7470   22.7770 H   0  0  0  0  0  0  0  0  0  0  0  0
   31.6600   33.9480   24.7760 C   0  0  0  0  0  0  0  0  0  0  0  0
   30.5520   34.0650   24.8540 H   0  0  0  0  0  0  0  0  0  0  0  0
   31.9380   32.9010   24.5130 H   0  0  0  0  0  0  0  0  0  0  0  0
   32.2230   34.0980   26.0930 O   0  0  0  0  0  0  0  0  0  0  0  0
   32.1470   35.0450   26.3780 H   0  0  0  0  0  0  0  0  0  0  0  0
  1  3  2  0  0  0  0
  1  7  1  0  0  0  0
  1 21  1  0  0  0  0
  2 12  1  0  0  0  0
  2 17  2  0  0  0  0
  2 18  1  0  0  0  0
  3 13  1  0  0  0  0
  3 14  1  0  0  0  0
  4 16  2  0  0  0  0
  4 19  1  0  0  0  0
  4 20  1  0  0  0  0
  5  6  1  0  0  0  0
  5 10  1  0  0  0  0
  5 11  2  0  0  0  0
  6 12  2  0  0  0  0
  6 22  1  0  0  0  0
  7  8  2  0  0  0  0
  7 27  1  0  0  0  0
  8  9  1  0  0  0  0
  8 23  1  0  0  0  0
  9 13  2  0  0  0  0
  9 24  1  0  0  0  0
 10 18  1  0  0  0  0
 10 19  2  0  0  0  0
 11 16  1  0  0  0  0
 11 25  1  0  0  0  0
 12 15  1  0  0  0  0
 13 15  1  0  0  0  0
 18 43  1  0  0  0  0
 20 26  1  0  0  0  0
 20 30  1  0  0  0  0
 28 29  1  0  0  0  0
 28 33  1  0  0  0  0
 28 34  1  0  0  0  0
 28 35  1  0  0  0  0
 29 30  1  0  0  0  0
 29 36  1  0  0  0  0
 29 37  1  0  0  0  0
 30 31  1  0  0  0  0
 30 38  1  0  0  0  0
 31 32  1  0  0  0  0
 31 39  1  0  0  0  0
 31 40  1  0  0  0  0
 32 33  1  0  0  0  0
 32 41  1  0  0  0  0
 32 42  1  0  0  0  0
 43 44  1  0  0  0  0
 43 45  1  0  0  0  0
 43 46  1  0  0  0  0
 46 47  1  0  0  0  0
 46 48  1  0  0  0  0
 46 49  1  0  0  0  0
 49 50  1  0  0  0  0
 49 51  1  0  0  0  0
 49 52  1  0  0  0  0
 52 53  1  0  0  0  0
M  END
$$$$
