5
                    3D
 Schrodinger Suite 2022-3.
 52 54  0  0  1  0  0  0  0  0999 V2000
   16.3180  -16.0110   23.0130 N   0  3  0  0  0  0  0  0  0  0  0  0
   17.6340  -15.2140   23.0590 C   0  0  1  0  0  0  0  0  0  0  0  0
   17.3700  -13.8000   22.4700 C   0  0  0  0  0  0  0  0  0  0  0  0
   16.3840  -13.1470   22.8040 O   0  0  0  0  0  0  0  0  0  0  0  0
   18.1160  -15.1380   24.5220 C   0  0  0  0  0  0  0  0  0  0  0  0
   19.5480  -14.6740   24.6340 C   0  0  0  0  0  0  0  0  0  0  0  0
   20.5920  -15.4700   24.1360 C   0  0  0  0  0  0  0  0  0  0  0  0
   19.8510  -13.4700   25.2800 C   0  0  0  0  0  0  0  0  0  0  0  0
   21.9170  -15.0510   24.2680 C   0  0  0  0  0  0  0  0  0  0  0  0
   21.1780  -13.0430   25.3970 C   0  0  0  0  0  0  0  0  0  0  0  0
   22.2150  -13.8330   24.8940 C   0  0  0  0  0  0  0  0  0  0  0  0
   18.2750  -13.3070   21.5680 N   0  0  0  0  0  0  0  0  0  0  0  0
   18.1130  -11.9510   20.9550 C   0  0  2  0  0  0  0  0  0  0  0  0
   16.6880  -11.7700   20.3620 C   0  0  0  0  0  0  0  0  0  0  0  0
   16.1380  -12.6160   19.6750 O   0  0  0  0  0  0  0  0  0  0  0  0
   19.1830  -11.8860   19.8450 C   0  0  0  0  0  0  0  0  0  0  0  0
   20.2090  -12.9920   20.1550 C   0  0  0  0  0  0  0  0  0  0  0  0
   19.4920  -14.0110   21.0580 C   0  0  0  0  0  0  0  0  0  0  0  0
   16.1510  -10.5020   20.5540 N   0  0  0  0  0  0  0  0  0  0  0  0
   14.7620  -10.1740   20.1320 C   0  0  0  0  0  0  0  0  0  0  0  0
   13.7060  -10.5680   21.1360 C   0  0  0  0  0  0  0  0  0  0  0  0
   13.3510   -9.6790   22.1620 C   0  0  0  0  0  0  0  0  0  0  0  0
   12.3170  -10.0030   23.0430 C   0  0  0  0  0  0  0  0  0  0  0  0
   11.6380  -11.2190   22.9100 C   0  0  0  0  0  0  0  0  0  0  0  0
   12.0110  -12.1200   21.9090 C   0  0  0  0  0  0  0  0  0  0  0  0
   13.0370  -11.7950   21.0170 C   0  0  0  0  0  0  0  0  0  0  0  0
   13.8780   -8.7320   22.2730 H   0  0  0  0  0  0  0  0  0  0  0  0
   12.0410   -9.3100   23.8420 H   0  0  0  0  0  0  0  0  0  0  0  0
   10.8140  -11.4700   23.5830 H   0  0  0  0  0  0  0  0  0  0  0  0
   11.4990  -13.0820   21.8260 H   0  0  0  0  0  0  0  0  0  0  0  0
   13.3060  -12.5000   20.2270 H   0  0  0  0  0  0  0  0  0  0  0  0
   19.0530  -12.8720   25.7120 H   0  0  0  0  0  0  0  0  0  0  0  0
   21.3810  -12.0880   25.8880 H   0  0  0  0  0  0  0  0  0  0  0  0
   22.7170  -15.6880   23.8790 H   0  0  0  0  0  0  0  0  0  0  0  0
   23.2560  -13.5150   24.9880 H   0  0  0  0  0  0  0  0  0  0  0  0
   20.3670  -16.4240   23.6510 H   0  0  0  0  0  0  0  0  0  0  0  0
   16.4820  -16.9790   23.4200 H   0  0  0  0  0  0  0  0  0  0  0  0
   15.5660  -15.5050   23.5820 H   0  0  0  0  0  0  0  0  0  0  0  0
   15.9930  -16.1310   22.0140 H   0  0  0  0  0  0  0  0  0  0  0  0
   18.3740  -15.8130   22.4520 H   0  0  0  0  0  0  0  0  0  0  0  0
   18.0610  -16.1690   24.9750 H   0  0  0  0  0  0  0  0  0  0  0  0
   17.4360  -14.4690   25.1090 H   0  0  0  0  0  0  0  0  0  0  0  0
   18.3260  -11.1890   21.7540 H   0  0  0  0  0  0  0  0  0  0  0  0
   19.6820  -10.8980   19.8530 H   0  0  0  0  0  0  0  0  0  0  0  0
   18.7320  -12.0800   18.8430 H   0  0  0  0  0  0  0  0  0  0  0  0
   21.0970  -12.5740   20.6840 H   0  0  0  0  0  0  0  0  0  0  0  0
   20.5570  -13.4890   19.2170 H   0  0  0  0  0  0  0  0  0  0  0  0
   19.1910  -14.9170   20.4710 H   0  0  0  0  0  0  0  0  0  0  0  0
   20.1490  -14.3130   21.9130 H   0  0  0  0  0  0  0  0  0  0  0  0
   16.5500   -9.8780   21.2780 H   0  0  0  0  0  0  0  0  0  0  0  0
   14.5620  -10.6760   19.1430 H   0  0  0  0  0  0  0  0  0  0  0  0
   14.7270   -9.0600   19.9710 H   0  0  0  0  0  0  0  0  0  0  0  0
  1  2  1  0  0  0  0
  1 37  1  0  0  0  0
  1 38  1  0  0  0  0
  1 39  1  0  0  0  0
  2  3  1  0  0  0  0
  2  5  1  0  0  0  0
  2 40  1  0  0  0  0
  3  4  2  0  0  0  0
  3 12  1  0  0  0  0
  5  6  1  0  0  0  0
  5 41  1  0  0  0  0
  5 42  1  0  0  0  0
  6  7  2  0  0  0  0
  6  8  1  0  0  0  0
  7  9  1  0  0  0  0
  7 36  1  0  0  0  0
  8 10  2  0  0  0  0
  8 32  1  0  0  0  0
  9 11  2  0  0  0  0
  9 34  1  0  0  0  0
 10 11  1  0  0  0  0
 10 33  1  0  0  0  0
 11 35  1  0  0  0  0
 12 13  1  0  0  0  0
 12 18  1  0  0  0  0
 13 14  1  0  0  0  0
 13 16  1  0  0  0  0
 13 43  1  0  0  0  0
 14 15  2  0  0  0  0
 14 19  1  0  0  0  0
 16 17  1  0  0  0  0
 16 44  1  0  0  0  0
 16 45  1  0  0  0  0
 17 18  1  0  0  0  0
 17 46  1  0  0  0  0
 17 47  1  0  0  0  0
 18 48  1  0  0  0  0
 18 49  1  0  0  0  0
 19 20  1  0  0  0  0
 19 50  1  0  0  0  0
 20 21  1  0  0  0  0
 20 51  1  0  0  0  0
 20 52  1  0  0  0  0
 21 22  2  0  0  0  0
 21 26  1  0  0  0  0
 22 23  1  0  0  0  0
 22 27  1  0  0  0  0
 23 24  2  0  0  0  0
 23 28  1  0  0  0  0
 24 25  1  0  0  0  0
 24 29  1  0  0  0  0
 25 26  2  0  0  0  0
 25 30  1  0  0  0  0
 26 31  1  0  0  0  0
M  CHG  1   1   1
M  END
$$$$
