p38a_2aa
 OpenBabel02232411163D
Structure written by MMmdl.
 43 45  0  0  0  0  0  0  0  0999 V2000
   36.3700   36.0770   15.7770 C   0  0  0  0  0  0  0  0  0  0  0  0
   34.5180   34.9930   21.2310 C   0  0  0  0  0  0  0  0  0  0  0  0
   35.7530   35.5830   16.9220 C   0  0  0  0  0  0  0  0  0  0  0  0
   33.8770   39.0630   23.7700 C   0  0  0  0  0  0  0  0  0  0  0  0
   32.7380   38.9860   26.0110 C   0  0  0  0  0  0  0  0  0  0  0  0
   34.7930   37.8510   21.4710 C   0  0  0  0  0  0  0  0  0  0  0  0
   35.3290   37.1860   20.3130 C   0  0  0  0  0  0  0  0  0  0  0  0
   37.6610   36.5980   15.9390 C   0  0  0  0  0  0  0  0  0  0  0  0
   38.3390   36.6110   17.1610 C   0  0  0  0  0  0  0  0  0  0  0  0
   37.6840   36.1410   18.3040 C   0  0  0  0  0  0  0  0  0  0  0  0
   34.2060   37.0900   22.5240 C   0  0  0  0  0  0  0  0  0  0  0  0
   34.8260   39.2600   21.6370 C   0  0  0  0  0  0  0  0  0  0  0  0
   35.2220   35.8400   20.2280 C   0  0  0  0  0  0  0  0  0  0  0  0
   36.3900   35.6270   18.1790 C   0  0  0  0  0  0  0  0  0  0  0  0
   33.4880   34.9180   23.5320 C   0  0  0  0  0  0  0  0  0  0  0  0
   34.5450   35.0410   16.8560 F   0  0  0  0  0  0  0  0  0  0  0  0
   35.7080   35.0000   19.2300 O   0  0  0  0  0  0  0  0  0  0  0  0
   34.3900   39.8790   22.7470 N   0  0  0  0  0  0  0  0  0  0  0  0
   34.3010   33.8080   21.1200 O   0  0  0  0  0  0  0  0  0  0  0  0
   34.0790   35.6990   22.4090 N   0  0  0  0  0  0  0  0  0  0  0  0
   33.7320   37.6940   23.6640 N   0  0  0  0  0  0  0  0  0  0  0  0
   33.5280   39.6790   24.9540 N   0  0  0  0  0  0  0  0  0  0  0  0
   35.8680   36.0810   14.8070 H   0  0  0  0  0  0  0  0  0  0  0  0
   32.8640   39.8260   27.3120 C   0  0  0  0  0  0  0  0  0  0  0  0
   35.8150   37.7990   19.5500 H   0  0  0  0  0  0  0  0  0  0  0  0
   39.3530   37.0100   17.2360 H   0  0  0  0  0  0  0  0  0  0  0  0
   38.1800   36.2020   19.2760 H   0  0  0  0  0  0  0  0  0  0  0  0
   35.2140   39.8970   20.8270 H   0  0  0  0  0  0  0  0  0  0  0  0
   33.9080   35.2740   24.5130 H   0  0  0  0  0  0  0  0  0  0  0  0
   32.3740   35.0490   23.5450 H   0  0  0  0  0  0  0  0  0  0  0  0
   33.7320   33.8290   23.4150 H   0  0  0  0  0  0  0  0  0  0  0  0
   33.5370   40.7180   25.0040 H   0  0  0  0  0  0  0  0  0  0  0  0
   38.2530   37.1360   14.8750 F   0  0  0  0  0  0  0  0  0  0  0  0
   31.2490   38.8260   25.6130 C   0  0  0  0  0  0  0  0  0  0  0  0
   30.9920   37.5810   24.9630 O   0  0  0  0  0  0  0  0  0  0  0  0
   31.7340   37.3580   24.3520 H   0  0  0  0  0  0  0  0  0  0  0  0
   30.6130   38.7690   26.5320 H   0  0  0  0  0  0  0  0  0  0  0  0
   30.9180   39.6530   24.9460 H   0  0  0  0  0  0  0  0  0  0  0  0
   32.0830   39.2180   28.3460 O   0  0  0  0  0  0  0  0  0  0  0  0
   33.9310   39.9130   27.6250 H   0  0  0  0  0  0  0  0  0  0  0  0
   32.3990   40.8340   27.2010 H   0  0  0  0  0  0  0  0  0  0  0  0
   32.5410   38.3950   28.6640 H   0  0  0  0  0  0  0  0  0  0  0  0
   33.1920   37.9700   26.1930 H   0  0  0  0  0  0  0  0  0  0  0  0
  1  3  2  0  0  0  0
  1  8  1  0  0  0  0
  1 23  1  0  0  0  0
  2 13  1  0  0  0  0
  2 19  2  0  0  0  0
  2 20  1  0  0  0  0
  3 14  1  0  0  0  0
  3 16  1  0  0  0  0
  4 18  2  0  0  0  0
  4 21  1  0  0  0  0
  4 22  1  0  0  0  0
  5 22  1  0  0  0  0
  5 24  1  0  0  0  0
  5 34  1  0  0  0  0
  5 43  1  0  0  0  0
  6  7  1  0  0  0  0
  6 11  1  0  0  0  0
  6 12  2  0  0  0  0
  7 13  2  0  0  0  0
  7 25  1  0  0  0  0
  8  9  2  0  0  0  0
  8 33  1  0  0  0  0
  9 10  1  0  0  0  0
  9 26  1  0  0  0  0
 10 14  2  0  0  0  0
 10 27  1  0  0  0  0
 11 20  1  0  0  0  0
 11 21  2  0  0  0  0
 12 18  1  0  0  0  0
 12 28  1  0  0  0  0
 13 17  1  0  0  0  0
 14 17  1  0  0  0  0
 15 20  1  0  0  0  0
 15 29  1  0  0  0  0
 15 30  1  0  0  0  0
 15 31  1  0  0  0  0
 22 32  1  0  0  0  0
 24 39  1  0  0  0  0
 24 40  1  0  0  0  0
 24 41  1  0  0  0  0
 34 35  1  0  0  0  0
 34 37  1  0  0  0  0
 34 38  1  0  0  0  0
 35 36  1  0  0  0  0
 39 42  1  0  0  0  0
M  END
$$$$
