2q
                    3D
 Schrodinger Suite 2022-3.
 59 63  0  0  1  0  0  0  0  0999 V2000
   27.1230    8.8300   30.4380 C   0  0  0  0  0  0  0  0  0  0  0  0
   28.4730    9.4280   30.8590 C   0  0  0  0  0  0  0  0  0  0  0  0
   28.4360    8.2350   32.9660 C   0  0  0  0  0  0  0  0  0  0  0  0
   27.0870    7.5840   32.6300 C   0  0  0  0  0  0  0  0  0  0  0  0
   15.8430   10.4790   31.6770 C   0  0  0  0  0  0  0  0  0  0  0  0
   29.1830    8.5610   31.7730 O   0  0  0  0  0  0  0  0  0  0  0  0
   21.2280   12.5860   31.2630 C   0  0  0  0  0  0  0  0  0  0  0  0
   17.1270   10.9980   31.8220 C   0  0  0  0  0  0  0  0  0  0  0  0
   23.8620    8.5300   31.0380 C   0  0  0  0  0  0  0  0  0  0  0  0
   26.2910    8.5230   31.7010 C   0  0  0  0  0  0  0  0  0  0  0  0
   21.4360    9.7780   30.7180 C   0  0  0  0  0  0  0  0  0  0  0  0
   20.1470   10.4060   30.6790 C   0  0  0  0  0  0  0  0  0  0  0  0
   15.1690   10.7910   30.4890 C   0  0  0  0  0  0  0  0  0  0  0  0
   15.7230   11.5790   29.4780 C   0  0  0  0  0  0  0  0  0  0  0  0
   17.0070   12.1050   29.6540 C   0  0  0  0  0  0  0  0  0  0  0  0
   22.5920   10.5140   31.1180 C   0  0  0  0  0  0  0  0  0  0  0  0
   21.6180    8.4070   30.3860 C   0  0  0  0  0  0  0  0  0  0  0  0
   20.0570   11.7200   30.9840 C   0  0  0  0  0  0  0  0  0  0  0  0
   17.6990   11.8280   30.8370 C   0  0  0  0  0  0  0  0  0  0  0  0
   17.8400   10.6960   32.9000 F   0  0  0  0  0  0  0  0  0  0  0  0
   13.9520   10.2860   30.3060 F   0  0  0  0  0  0  0  0  0  0  0  0
   18.9050   12.4980   31.0790 O   0  0  0  0  0  0  0  0  0  0  0  0
   22.7870    7.7710   30.5270 N   0  0  0  0  0  0  0  0  0  0  0  0
   21.1790   13.7860   31.4310 O   0  0  0  0  0  0  0  0  0  0  0  0
   22.5000   11.9050   31.3380 N   0  0  0  0  0  0  0  0  0  0  0  0
   23.7990    9.8890   31.2900 N   0  0  0  0  0  0  0  0  0  0  0  0
   25.0110    7.8420   31.3410 N   0  0  0  0  0  0  0  0  0  0  0  0
   15.1810   11.7750   28.5520 H   0  0  0  0  0  0  0  0  0  0  0  0
   17.4630   12.7170   28.8690 H   0  0  0  0  0  0  0  0  0  0  0  0
   15.4060    9.8310   32.4360 H   0  0  0  0  0  0  0  0  0  0  0  0
   19.2830    9.7960   30.4150 H   0  0  0  0  0  0  0  0  0  0  0  0
   20.7710    7.8230   29.9880 H   0  0  0  0  0  0  0  0  0  0  0  0
   27.2770    7.8890   29.8620 H   0  0  0  0  0  0  0  0  0  0  0  0
   26.5850    9.5580   29.7880 H   0  0  0  0  0  0  0  0  0  0  0  0
   28.3260   10.4240   31.3380 H   0  0  0  0  0  0  0  0  0  0  0  0
   29.1780    9.4840   30.0000 H   0  0  0  0  0  0  0  0  0  0  0  0
   29.1110    7.5140   33.4810 H   0  0  0  0  0  0  0  0  0  0  0  0
   28.2850    9.1610   33.5680 H   0  0  0  0  0  0  0  0  0  0  0  0
   26.5140    7.3980   33.5700 H   0  0  0  0  0  0  0  0  0  0  0  0
   27.2520    6.6000   32.1270 H   0  0  0  0  0  0  0  0  0  0  0  0
   26.0490    9.4790   32.2430 H   0  0  0  0  0  0  0  0  0  0  0  0
   23.3330   13.8330   31.5970 H   0  0  0  0  0  0  0  0  0  0  0  0
   25.1070    6.8590   31.0110 H   0  0  0  0  0  0  0  0  0  0  0  0
   25.8490   13.7240   30.7360 C   0  0  0  0  0  0  0  0  0  0  0  0
   24.8120   12.6100   30.5780 C   0  0  0  0  0  0  0  0  0  0  0  0
   23.7030   12.7640   31.6390 C   0  0  0  0  0  0  0  0  0  0  0  0
   24.2550   12.4890   33.0540 C   0  0  0  0  0  0  0  0  0  0  0  0
   25.2250   13.5970   33.4680 C   0  0  0  0  0  0  0  0  0  0  0  0
   25.3690   14.7090   30.4920 H   0  0  0  0  0  0  0  0  0  0  0  0
   26.6350   13.5710   29.9450 H   0  0  0  0  0  0  0  0  0  0  0  0
   25.3130   11.6120   30.6640 H   0  0  0  0  0  0  0  0  0  0  0  0
   24.3670   12.6740   29.5530 H   0  0  0  0  0  0  0  0  0  0  0  0
   23.4120   12.4450   33.7870 H   0  0  0  0  0  0  0  0  0  0  0  0
   24.7700   11.4940   33.0630 H   0  0  0  0  0  0  0  0  0  0  0  0
   24.6720   14.5710   33.5580 H   0  0  0  0  0  0  0  0  0  0  0  0
   25.6230   13.3600   34.4920 H   0  0  0  0  0  0  0  0  0  0  0  0
   26.5720   13.7710   32.3360 S   0  0  0  0  0  0  0  0  0  0  0  0
   27.5410   12.6820   32.5250 O   0  0  0  0  0  0  0  0  0  0  0  0
   27.2190   15.0940   32.5310 O   0  0  0  0  0  0  0  0  0  0  0  0
  1  2  1  0  0  0  0
  1 10  1  0  0  0  0
  1 33  1  0  0  0  0
  1 34  1  0  0  0  0
  2  6  1  0  0  0  0
  2 35  1  0  0  0  0
  2 36  1  0  0  0  0
  3  4  1  0  0  0  0
  3  6  1  0  0  0  0
  3 37  1  0  0  0  0
  3 38  1  0  0  0  0
  4 10  1  0  0  0  0
  4 39  1  0  0  0  0
  4 40  1  0  0  0  0
  5  8  1  0  0  0  0
  5 13  2  0  0  0  0
  5 30  1  0  0  0  0
  7 18  1  0  0  0  0
  7 24  2  0  0  0  0
  7 25  1  0  0  0  0
  8 19  2  0  0  0  0
  8 20  1  0  0  0  0
  9 23  1  0  0  0  0
  9 26  2  0  0  0  0
  9 27  1  0  0  0  0
 10 27  1  0  0  0  0
 10 41  1  0  0  0  0
 11 12  1  0  0  0  0
 11 16  2  0  0  0  0
 11 17  1  0  0  0  0
 12 18  2  0  0  0  0
 12 31  1  0  0  0  0
 13 14  1  0  0  0  0
 13 21  1  0  0  0  0
 14 15  2  0  0  0  0
 14 28  1  0  0  0  0
 15 19  1  0  0  0  0
 15 29  1  0  0  0  0
 16 25  1  0  0  0  0
 16 26  1  0  0  0  0
 17 23  2  0  0  0  0
 17 32  1  0  0  0  0
 18 22  1  0  0  0  0
 19 22  1  0  0  0  0
 25 46  1  0  0  0  0
 27 43  1  0  0  0  0
 42 46  1  0  0  0  0
 44 45  1  0  0  0  0
 44 49  1  0  0  0  0
 44 50  1  0  0  0  0
 44 57  1  0  0  0  0
 45 46  1  0  0  0  0
 45 51  1  0  0  0  0
 45 52  1  0  0  0  0
 46 47  1  0  0  0  0
 47 48  1  0  0  0  0
 47 53  1  0  0  0  0
 47 54  1  0  0  0  0
 48 55  1  0  0  0  0
 48 56  1  0  0  0  0
 48 57  1  0  0  0  0
 57 58  2  0  0  0  0
 57 59  2  0  0  0  0
M  END
$$$$
