23476
                    3D
 Schrodinger Suite 2022-3.
 48 50  0  0  1  0  0  0  0  0999 V2000
   43.7880   14.1560   16.5350 S   0  0  0  0  0  0  0  0  0  0  0  0
   43.4490   15.5230   15.4990 C   0  0  0  0  0  0  0  0  0  0  0  0
   42.5120   15.1580   14.5660 C   0  0  0  0  0  0  0  0  0  0  0  0
   42.0780   13.7850   14.6990 C   0  0  0  0  0  0  0  0  0  0  0  0
   42.6330   13.1070   15.7530 C   0  0  0  0  0  0  0  0  0  0  0  0
   44.0770   16.8830   15.8020 C   0  0  0  0  0  0  0  0  0  0  0  0
   44.2760   17.1020   17.0160 O   0  0  0  0  0  0  0  0  0  0  0  0
   44.3420   17.6650   14.8860 O   0  5  0  0  0  0  0  0  0  0  0  0
   42.3040   11.7700   16.2110 C   0  0  0  0  0  0  0  0  0  0  0  0
   40.9740   11.3470   16.0970 C   0  0  0  0  0  0  0  0  0  0  0  0
   40.6140    9.9960   16.3070 C   0  0  0  0  0  0  0  0  0  0  0  0
   41.5700    9.1080   16.8230 C   0  0  0  0  0  0  0  0  0  0  0  0
   42.8760    9.5680   17.0460 C   0  0  0  0  0  0  0  0  0  0  0  0
   43.2610   10.8660   16.7200 C   0  0  0  0  0  0  0  0  0  0  0  0
   40.8640   12.9910   13.4600 Br  0  0  0  0  0  0  0  0  0  0  0  0
   42.1130   15.9970   13.5790 O   0  0  0  0  0  0  0  0  0  0  0  0
   40.6730   16.2650   13.5460 C   0  0  0  0  0  0  0  0  0  0  0  0
   40.6620   17.6870   12.9050 C   0  0  0  0  0  0  0  0  0  0  0  0
   39.5360   18.0970   12.5430 O   0  5  0  0  0  0  0  0  0  0  0  0
   41.7450   18.2700   12.8020 O   0  0  0  0  0  0  0  0  0  0  0  0
   39.2500    9.6650   16.0320 N   0  0  0  0  0  0  0  0  0  0  0  0
   40.1790   12.0500   15.8330 H   0  0  0  0  0  0  0  0  0  0  0  0
   41.3260    8.0730   17.0490 H   0  0  0  0  0  0  0  0  0  0  0  0
   43.6030    8.8700   17.4680 H   0  0  0  0  0  0  0  0  0  0  0  0
   44.3010   11.1610   16.8540 H   0  0  0  0  0  0  0  0  0  0  0  0
   40.2290   16.2540   14.5610 H   0  0  0  0  0  0  0  0  0  0  0  0
   40.1870   15.5180   12.8890 H   0  0  0  0  0  0  0  0  0  0  0  0
   38.8450   10.2710   15.2870 H   0  0  0  0  0  0  0  0  0  0  0  0
   39.7600    7.6050   15.5830 H   0  0  0  0  0  0  0  0  0  0  0  0
   38.8580    8.2300   15.8310 C   0  0  0  0  0  0  0  0  0  0  0  0
   38.2500    7.7130   17.1560 C   0  0  0  0  0  0  0  0  0  0  0  0
   38.4990    6.2110   17.3570 C   0  0  0  0  0  0  0  0  0  0  0  0
   37.6190    5.2980   16.4880 C   0  0  0  0  0  0  0  0  0  0  0  0
   37.7190    5.5750   14.9780 C   0  0  0  0  0  0  0  0  0  0  0  0
   37.0200    6.8760   14.5550 C   0  0  0  0  0  0  0  0  0  0  0  0
   37.8890    8.1410   14.6230 C   0  0  0  0  0  0  0  0  0  0  0  0
   37.1570    7.9220   17.1830 H   0  0  0  0  0  0  0  0  0  0  0  0
   38.7250    8.2550   18.0110 H   0  0  0  0  0  0  0  0  0  0  0  0
   39.5730    5.9810   17.1490 H   0  0  0  0  0  0  0  0  0  0  0  0
   38.3000    5.9570   18.4280 H   0  0  0  0  0  0  0  0  0  0  0  0
   36.5550    5.3970   16.8100 H   0  0  0  0  0  0  0  0  0  0  0  0
   37.9300    4.2390   16.6710 H   0  0  0  0  0  0  0  0  0  0  0  0
   38.7910    5.6010   14.6720 H   0  0  0  0  0  0  0  0  0  0  0  0
   37.2320    4.7220   14.4420 H   0  0  0  0  0  0  0  0  0  0  0  0
   36.6710    6.7580   13.4990 H   0  0  0  0  0  0  0  0  0  0  0  0
   36.1130    7.0220   15.1910 H   0  0  0  0  0  0  0  0  0  0  0  0
   37.1890    9.0130   14.6300 H   0  0  0  0  0  0  0  0  0  0  0  0
   38.5050    8.1980   13.6920 H   0  0  0  0  0  0  0  0  0  0  0  0
  1  2  1  0  0  0  0
  1  5  1  0  0  0  0
  2  3  2  0  0  0  0
  2  6  1  0  0  0  0
  3  4  1  0  0  0  0
  3 16  1  0  0  0  0
  4  5  2  0  0  0  0
  4 15  1  0  0  0  0
  5  9  1  0  0  0  0
  6  7  2  0  0  0  0
  6  8  1  0  0  0  0
  9 10  1  0  0  0  0
  9 14  2  0  0  0  0
 10 11  2  0  0  0  0
 10 22  1  0  0  0  0
 11 12  1  0  0  0  0
 11 21  1  0  0  0  0
 12 13  2  0  0  0  0
 12 23  1  0  0  0  0
 13 14  1  0  0  0  0
 13 24  1  0  0  0  0
 14 25  1  0  0  0  0
 16 17  1  0  0  0  0
 17 18  1  0  0  0  0
 17 26  1  0  0  0  0
 17 27  1  0  0  0  0
 18 19  1  0  0  0  0
 18 20  2  0  0  0  0
 21 28  1  0  0  0  0
 21 30  1  0  0  0  0
 29 30  1  0  0  0  0
 30 31  1  0  0  0  0
 30 36  1  0  0  0  0
 31 32  1  0  0  0  0
 31 37  1  0  0  0  0
 31 38  1  0  0  0  0
 32 33  1  0  0  0  0
 32 39  1  0  0  0  0
 32 40  1  0  0  0  0
 33 34  1  0  0  0  0
 33 41  1  0  0  0  0
 33 42  1  0  0  0  0
 34 35  1  0  0  0  0
 34 43  1  0  0  0  0
 34 44  1  0  0  0  0
 35 36  1  0  0  0  0
 35 45  1  0  0  0  0
 35 46  1  0  0  0  0
 36 47  1  0  0  0  0
 36 48  1  0  0  0  0
M  CHG  2   8  -1  19  -1
M  END
$$$$
