p38a_2aa
 OpenBabel02232411163D
Structure written by MMmdl.
 43 45  0  0  0  0  0  0  0  0999 V2000
   36.3660   36.1010   15.7530 C   0  0  0  0  0  0  0  0  0  0  0  0
   34.5480   35.0170   21.2180 C   0  0  0  0  0  0  0  0  0  0  0  0
   35.7550   35.6100   16.9020 C   0  0  0  0  0  0  0  0  0  0  0  0
   33.7670   39.1000   23.6850 C   0  0  0  0  0  0  0  0  0  0  0  0
   32.7250   39.0290   25.9620 C   0  0  0  0  0  0  0  0  0  0  0  0
   34.7070   37.8890   21.3970 C   0  0  0  0  0  0  0  0  0  0  0  0
   35.2620   37.2220   20.2490 C   0  0  0  0  0  0  0  0  0  0  0  0
   37.6590   36.6180   15.9060 C   0  0  0  0  0  0  0  0  0  0  0  0
   38.3440   36.6310   17.1250 C   0  0  0  0  0  0  0  0  0  0  0  0
   37.6930   36.1670   18.2730 C   0  0  0  0  0  0  0  0  0  0  0  0
   34.1810   37.1250   22.4810 C   0  0  0  0  0  0  0  0  0  0  0  0
   34.6640   39.3030   21.5300 C   0  0  0  0  0  0  0  0  0  0  0  0
   35.2120   35.8710   20.1950 C   0  0  0  0  0  0  0  0  0  0  0  0
   36.3980   35.6540   18.1560 C   0  0  0  0  0  0  0  0  0  0  0  0
   33.5380   34.9540   23.5290 C   0  0  0  0  0  0  0  0  0  0  0  0
   34.5440   35.0720   16.8440 F   0  0  0  0  0  0  0  0  0  0  0  0
   35.7270   35.0280   19.2140 O   0  0  0  0  0  0  0  0  0  0  0  0
   34.2060   39.9220   22.6300 N   0  0  0  0  0  0  0  0  0  0  0  0
   34.3660   33.8230   21.1230 O   0  0  0  0  0  0  0  0  0  0  0  0
   34.1090   35.7240   22.3900 N   0  0  0  0  0  0  0  0  0  0  0  0
   33.7220   37.7240   23.6280 N   0  0  0  0  0  0  0  0  0  0  0  0
   33.4460   39.7360   24.8730 N   0  0  0  0  0  0  0  0  0  0  0  0
   35.8580   36.1040   14.7860 H   0  0  0  0  0  0  0  0  0  0  0  0
   32.5800   39.9800   27.1820 C   0  0  0  0  0  0  0  0  0  0  0  0
   35.7180   37.8340   19.4680 H   0  0  0  0  0  0  0  0  0  0  0  0
   39.3610   37.0260   17.1950 H   0  0  0  0  0  0  0  0  0  0  0  0
   38.1930   36.2300   19.2420 H   0  0  0  0  0  0  0  0  0  0  0  0
   35.0080   39.9420   20.6990 H   0  0  0  0  0  0  0  0  0  0  0  0
   34.1120   35.1770   24.4700 H   0  0  0  0  0  0  0  0  0  0  0  0
   32.4650   35.2420   23.6940 H   0  0  0  0  0  0  0  0  0  0  0  0
   33.5940   33.8540   23.3220 H   0  0  0  0  0  0  0  0  0  0  0  0
   33.2990   40.7600   24.8530 H   0  0  0  0  0  0  0  0  0  0  0  0
   38.2470   37.1540   14.8390 F   0  0  0  0  0  0  0  0  0  0  0  0
   31.3230   38.5190   25.5200 C   0  0  0  0  0  0  0  0  0  0  0  0
   30.7410   39.3920   24.5470 O   0  0  0  0  0  0  0  0  0  0  0  0
   30.2170   40.1150   24.9950 H   0  0  0  0  0  0  0  0  0  0  0  0
   31.4240   37.5530   24.9640 H   0  0  0  0  0  0  0  0  0  0  0  0
   30.6510   38.3950   26.3980 H   0  0  0  0  0  0  0  0  0  0  0  0
   33.7980   40.6740   27.4820 O   0  0  0  0  0  0  0  0  0  0  0  0
   31.7820   40.7310   26.9970 H   0  0  0  0  0  0  0  0  0  0  0  0
   32.3810   39.3790   28.1030 H   0  0  0  0  0  0  0  0  0  0  0  0
   33.8790   41.4260   26.8060 H   0  0  0  0  0  0  0  0  0  0  0  0
   33.3380   38.1320   26.2740 H   0  0  0  0  0  0  0  0  0  0  0  0
  1  3  2  0  0  0  0
  1  8  1  0  0  0  0
  1 23  1  0  0  0  0
  2 13  1  0  0  0  0
  2 19  2  0  0  0  0
  2 20  1  0  0  0  0
  3 14  1  0  0  0  0
  3 16  1  0  0  0  0
  4 18  2  0  0  0  0
  4 21  1  0  0  0  0
  4 22  1  0  0  0  0
  5 22  1  0  0  0  0
  5 24  1  0  0  0  0
  5 34  1  0  0  0  0
  5 43  1  0  0  0  0
  6  7  1  0  0  0  0
  6 11  1  0  0  0  0
  6 12  2  0  0  0  0
  7 13  2  0  0  0  0
  7 25  1  0  0  0  0
  8  9  2  0  0  0  0
  8 33  1  0  0  0  0
  9 10  1  0  0  0  0
  9 26  1  0  0  0  0
 10 14  2  0  0  0  0
 10 27  1  0  0  0  0
 11 20  1  0  0  0  0
 11 21  2  0  0  0  0
 12 18  1  0  0  0  0
 12 28  1  0  0  0  0
 13 17  1  0  0  0  0
 14 17  1  0  0  0  0
 15 20  1  0  0  0  0
 15 29  1  0  0  0  0
 15 30  1  0  0  0  0
 15 31  1  0  0  0  0
 22 32  1  0  0  0  0
 24 39  1  0  0  0  0
 24 40  1  0  0  0  0
 24 41  1  0  0  0  0
 34 35  1  0  0  0  0
 34 37  1  0  0  0  0
 34 38  1  0  0  0  0
 35 36  1  0  0  0  0
 39 42  1  0  0  0  0
M  END
$$$$
