18633-1
 OpenBabel02232411163D
Structure written by MMmdl.
 42 43  0  0  0  0  0  0  0  0999 V2000
   24.4670   11.0680   30.7670 C   0  0  0  0  0  0  0  0  0  0  0  0
   23.1220   11.2760   30.1060 C   0  0  0  0  0  0  0  0  0  0  0  0
   22.0490   11.2960   31.1240 O   0  0  0  0  0  0  0  0  0  0  0  0
   21.4860   10.1330   31.5220 C   0  0  0  0  0  0  0  0  0  0  0  0
   21.9760    8.9530   31.0760 N   0  0  0  0  0  0  0  0  0  0  0  0
   21.2950    7.7990   31.4350 C   0  0  0  0  0  0  0  0  0  0  0  0
   20.1640    7.8140   32.2460 C   0  0  0  0  0  0  0  0  0  0  0  0
   19.6620    9.0570   32.7170 C   0  0  0  0  0  0  0  0  0  0  0  0
   18.5230    9.0860   33.4820 N   0  0  0  0  0  0  0  0  0  0  0  0
   20.3390   10.2660   32.3610 C   0  0  0  0  0  0  0  0  0  0  0  0
   19.9180   11.5580   32.7430 C   0  0  0  0  0  0  0  0  0  0  0  0
   19.6250   12.6470   33.0160 N   0  0  0  0  0  0  0  0  0  0  0  0
   21.8800    6.6470   30.8580 N   0  0  0  0  0  0  0  0  0  0  0  0
   21.3610    5.3250   30.8610 C   0  0  0  0  0  0  0  0  0  0  0  0
   20.3340    5.0330   31.4350 O   0  0  0  0  0  0  0  0  0  0  0  0
   22.1870    4.3530   30.0300 C   0  0  0  0  0  0  0  0  0  0  0  0
   23.4490    3.9390   30.7340 C   0  0  0  0  0  0  0  0  0  0  0  0
   23.4680    2.8000   31.5480 C   0  0  0  0  0  0  0  0  0  0  0  0
   24.6330    2.4170   32.2230 C   0  0  0  0  0  0  0  0  0  0  0  0
   25.7920    3.1820   32.0560 C   0  0  0  0  0  0  0  0  0  0  0  0
   25.8040    4.3190   31.2190 C   0  0  0  0  0  0  0  0  0  0  0  0
   24.6340    4.6840   30.5650 C   0  0  0  0  0  0  0  0  0  0  0  0
   27.0160    2.9330   32.6340 O   0  0  0  0  0  0  0  0  0  0  0  0
   27.1250    1.8130   33.5500 C   0  0  0  0  0  0  0  0  0  0  0  0
   24.5030   10.0950   31.3110 H   0  0  0  0  0  0  0  0  0  0  0  0
   24.6960   11.8910   31.4760 H   0  0  0  0  0  0  0  0  0  0  0  0
   25.2620   11.0430   29.9800 H   0  0  0  0  0  0  0  0  0  0  0  0
   23.0040   12.3090   29.6970 H   0  0  0  0  0  0  0  0  0  0  0  0
   22.9000   10.5010   29.3390 H   0  0  0  0  0  0  0  0  0  0  0  0
   19.6450    6.8900   32.5080 H   0  0  0  0  0  0  0  0  0  0  0  0
   18.0330    8.2110   33.7510 H   0  0  0  0  0  0  0  0  0  0  0  0
   18.1130    9.9670   33.7900 H   0  0  0  0  0  0  0  0  0  0  0  0
   22.7580    6.8240   30.3320 H   0  0  0  0  0  0  0  0  0  0  0  0
   21.5580    3.4480   29.8210 H   0  0  0  0  0  0  0  0  0  0  0  0
   22.4410    4.8260   29.0450 H   0  0  0  0  0  0  0  0  0  0  0  0
   22.5730    2.1830   31.6640 H   0  0  0  0  0  0  0  0  0  0  0  0
   24.6130    1.5270   32.8550 H   0  0  0  0  0  0  0  0  0  0  0  0
   26.7210    4.8980   31.0840 H   0  0  0  0  0  0  0  0  0  0  0  0
   24.6520    5.5550   29.9030 H   0  0  0  0  0  0  0  0  0  0  0  0
   28.1970    1.8710   33.8520 H   0  0  0  0  0  0  0  0  0  0  0  0
   26.9110    0.8600   33.0190 H   0  0  0  0  0  0  0  0  0  0  0  0
   26.4520    1.9630   34.4220 H   0  0  0  0  0  0  0  0  0  0  0  0
  1  2  1  0  0  0  0
  1 25  1  0  0  0  0
  1 26  1  0  0  0  0
  1 27  1  0  0  0  0
  2  3  1  0  0  0  0
  2 28  1  0  0  0  0
  2 29  1  0  0  0  0
  3  4  1  0  0  0  0
  4 10  2  0  0  0  0
  4  5  1  0  0  0  0
  5  6  2  0  0  0  0
  6  7  1  0  0  0  0
  6 13  1  0  0  0  0
  7  8  2  0  0  0  0
  7 30  1  0  0  0  0
  8  9  1  0  0  0  0
  8 10  1  0  0  0  0
  9 31  1  0  0  0  0
  9 32  1  0  0  0  0
 10 11  1  0  0  0  0
 11 12  3  0  0  0  0
 13 14  1  0  0  0  0
 13 33  1  0  0  0  0
 14 15  2  0  0  0  0
 14 16  1  0  0  0  0
 16 17  1  0  0  0  0
 16 34  1  0  0  0  0
 16 35  1  0  0  0  0
 17 22  2  0  0  0  0
 17 18  1  0  0  0  0
 18 19  2  0  0  0  0
 18 36  1  0  0  0  0
 19 20  1  0  0  0  0
 19 37  1  0  0  0  0
 20 21  2  0  0  0  0
 20 23  1  0  0  0  0
 21 22  1  0  0  0  0
 21 38  1  0  0  0  0
 22 39  1  0  0  0  0
 23 24  1  0  0  0  0
 24 40  1  0  0  0  0
 24 41  1  0  0  0  0
 24 42  1  0  0  0  0
M  END
$$$$
