p38a_2i
 OpenBabel02232411163D
Structure written by MMmdl.
 48 51  0  0  0  0  0  0  0  0999 V2000
   33.6930   38.7740   27.1500 C   0  0  0  0  0  0  0  0  0  0  0  0
   33.1760   38.2490   28.4970 C   0  0  0  0  0  0  0  0  0  0  0  0
   30.9200   38.0450   27.6500 C   0  0  0  0  0  0  0  0  0  0  0  0
   31.3320   38.5560   26.2640 C   0  0  0  0  0  0  0  0  0  0  0  0
   34.2160   34.2150   16.8180 C   0  0  0  0  0  0  0  0  0  0  0  0
   32.0200   37.3980   28.3310 O   0  0  0  0  0  0  0  0  0  0  0  0
   34.5230   35.3720   21.5360 C   0  0  0  0  0  0  0  0  0  0  0  0
   34.6580   34.5160   18.1070 C   0  0  0  0  0  0  0  0  0  0  0  0
   33.4560   39.3920   24.0010 C   0  0  0  0  0  0  0  0  0  0  0  0
   32.5460   39.4910   26.4070 C   0  0  0  0  0  0  0  0  0  0  0  0
   34.5180   38.2110   21.7510 C   0  0  0  0  0  0  0  0  0  0  0  0
   35.2490   37.5700   20.6980 C   0  0  0  0  0  0  0  0  0  0  0  0
   34.9840   34.6510   15.7360 C   0  0  0  0  0  0  0  0  0  0  0  0
   36.1490   35.3930   15.9480 C   0  0  0  0  0  0  0  0  0  0  0  0
   36.5590   35.7040   17.2480 C   0  0  0  0  0  0  0  0  0  0  0  0
   33.9170   37.4310   22.7850 C   0  0  0  0  0  0  0  0  0  0  0  0
   34.4480   39.6230   21.8800 C   0  0  0  0  0  0  0  0  0  0  0  0
   35.3430   36.2170   20.6530 C   0  0  0  0  0  0  0  0  0  0  0  0
   35.8240   35.2630   18.3560 C   0  0  0  0  0  0  0  0  0  0  0  0
   33.1710   35.2340   23.6850 C   0  0  0  0  0  0  0  0  0  0  0  0
   33.9650   34.0300   19.1350 F   0  0  0  0  0  0  0  0  0  0  0  0
   36.3270   35.5350   19.7450 C   0  0  0  0  0  0  0  0  0  0  0  0
   33.9550   40.2230   22.9660 N   0  0  0  0  0  0  0  0  0  0  0  0
   34.3130   34.1820   21.4040 O   0  0  0  0  0  0  0  0  0  0  0  0
   33.8760   36.0440   22.6540 N   0  0  0  0  0  0  0  0  0  0  0  0
   33.3860   38.0200   23.9150 N   0  0  0  0  0  0  0  0  0  0  0  0
   32.9830   40.0700   25.1020 N   0  0  0  0  0  0  0  0  0  0  0  0
   34.5340   39.4860   27.3330 H   0  0  0  0  0  0  0  0  0  0  0  0
   34.0790   37.9220   26.5400 H   0  0  0  0  0  0  0  0  0  0  0  0
   33.9130   37.5590   28.9710 H   0  0  0  0  0  0  0  0  0  0  0  0
   32.9120   39.0900   29.1790 H   0  0  0  0  0  0  0  0  0  0  0  0
   30.5370   38.8690   28.2930 H   0  0  0  0  0  0  0  0  0  0  0  0
   30.1780   37.2180   27.5700 H   0  0  0  0  0  0  0  0  0  0  0  0
   31.5880   37.6840   25.6120 H   0  0  0  0  0  0  0  0  0  0  0  0
   30.4820   39.1050   25.7960 H   0  0  0  0  0  0  0  0  0  0  0  0
   33.2850   33.6760   16.6310 H   0  0  0  0  0  0  0  0  0  0  0  0
   32.2380   40.3970   27.0120 H   0  0  0  0  0  0  0  0  0  0  0  0
   35.7620   38.2080   19.9690 H   0  0  0  0  0  0  0  0  0  0  0  0
   36.7350   35.7460   15.0980 H   0  0  0  0  0  0  0  0  0  0  0  0
   37.4650   36.3010   17.3870 H   0  0  0  0  0  0  0  0  0  0  0  0
   34.8150   40.2600   21.0620 H   0  0  0  0  0  0  0  0  0  0  0  0
   33.6430   35.3990   24.6910 H   0  0  0  0  0  0  0  0  0  0  0  0
   32.0930   35.5400   23.7420 H   0  0  0  0  0  0  0  0  0  0  0  0
   33.2330   34.1450   23.4260 H   0  0  0  0  0  0  0  0  0  0  0  0
   33.2120   41.0860   25.1670 H   0  0  0  0  0  0  0  0  0  0  0  0
   34.6640   34.4060   14.7250 H   0  0  0  0  0  0  0  0  0  0  0  0
   37.2470   36.1830   19.6890 H   0  0  0  0  0  0  0  0  0  0  0  0
   36.6350   34.5580   20.1930 H   0  0  0  0  0  0  0  0  0  0  0  0
  1  2  1  0  0  0  0
  1 10  1  0  0  0  0
  1 28  1  0  0  0  0
  1 29  1  0  0  0  0
  2  6  1  0  0  0  0
  2 30  1  0  0  0  0
  2 31  1  0  0  0  0
  3  4  1  0  0  0  0
  3  6  1  0  0  0  0
  3 32  1  0  0  0  0
  3 33  1  0  0  0  0
  4 10  1  0  0  0  0
  4 34  1  0  0  0  0
  4 35  1  0  0  0  0
  5  8  2  0  0  0  0
  5 13  1  0  0  0  0
  5 36  1  0  0  0  0
  7 18  1  0  0  0  0
  7 24  2  0  0  0  0
  7 25  1  0  0  0  0
  8 19  1  0  0  0  0
  8 21  1  0  0  0  0
  9 23  2  0  0  0  0
  9 26  1  0  0  0  0
  9 27  1  0  0  0  0
 10 27  1  0  0  0  0
 10 37  1  0  0  0  0
 11 12  1  0  0  0  0
 11 16  1  0  0  0  0
 11 17  2  0  0  0  0
 12 18  2  0  0  0  0
 12 38  1  0  0  0  0
 13 14  2  0  0  0  0
 13 46  1  0  0  0  0
 14 15  1  0  0  0  0
 14 39  1  0  0  0  0
 15 19  2  0  0  0  0
 15 40  1  0  0  0  0
 16 25  1  0  0  0  0
 16 26  2  0  0  0  0
 17 23  1  0  0  0  0
 17 41  1  0  0  0  0
 18 22  1  0  0  0  0
 19 22  1  0  0  0  0
 20 25  1  0  0  0  0
 20 42  1  0  0  0  0
 20 43  1  0  0  0  0
 20 44  1  0  0  0  0
 22 47  1  0  0  0  0
 22 48  1  0  0  0  0
 27 45  1  0  0  0  0
M  END
$$$$
