p38a_2z
 OpenBabel02232411163D
Structure written by MMmdl.
 45 47  0  0  0  0  0  0  0  0999 V2000
   38.2700   36.5620   17.1590 C   0  0  0  0  0  0  0  0  0  0  0  0
   34.4300   35.0930   21.1530 C   0  0  0  0  0  0  0  0  0  0  0  0
   37.4710   36.1110   18.2060 C   0  0  0  0  0  0  0  0  0  0  0  0
   33.7800   39.1080   23.7770 C   0  0  0  0  0  0  0  0  0  0  0  0
   33.0140   39.0250   26.2240 C   0  0  0  0  0  0  0  0  0  0  0  0
   34.5450   37.9660   21.3790 C   0  0  0  0  0  0  0  0  0  0  0  0
   34.9940   37.3350   20.1680 C   0  0  0  0  0  0  0  0  0  0  0  0
   37.6340   36.7380   15.9220 C   0  0  0  0  0  0  0  0  0  0  0  0
   36.2830   36.4630   15.7030 C   0  0  0  0  0  0  0  0  0  0  0  0
   35.5040   35.9970   16.7680 C   0  0  0  0  0  0  0  0  0  0  0  0
   34.0790   37.1720   22.4690 C   0  0  0  0  0  0  0  0  0  0  0  0
   34.5550   39.3740   21.5730 C   0  0  0  0  0  0  0  0  0  0  0  0
   34.9600   35.9840   20.0880 C   0  0  0  0  0  0  0  0  0  0  0  0
   36.1040   35.8120   18.0160 C   0  0  0  0  0  0  0  0  0  0  0  0
   33.4910   34.9740   23.4910 C   0  0  0  0  0  0  0  0  0  0  0  0
   37.9910   35.9550   19.4160 F   0  0  0  0  0  0  0  0  0  0  0  0
   35.3710   35.1790   19.0270 O   0  0  0  0  0  0  0  0  0  0  0  0
   34.2000   39.9570   22.7270 N   0  0  0  0  0  0  0  0  0  0  0  0
   34.3380   33.8860   21.0780 O   0  0  0  0  0  0  0  0  0  0  0  0
   34.0070   35.7740   22.3460 N   0  0  0  0  0  0  0  0  0  0  0  0
   33.6960   37.7350   23.6600 N   0  0  0  0  0  0  0  0  0  0  0  0
   33.4290   39.7230   24.9540 N   0  0  0  0  0  0  0  0  0  0  0  0
   39.3270   36.8040   17.3020 H   0  0  0  0  0  0  0  0  0  0  0  0
   34.0660   38.0020   26.6650 C   0  0  0  0  0  0  0  0  0  0  0  0
   35.3560   37.9700   19.3570 H   0  0  0  0  0  0  0  0  0  0  0  0
   35.8230   36.6190   14.7240 H   0  0  0  0  0  0  0  0  0  0  0  0
   34.4390   35.7940   16.6170 H   0  0  0  0  0  0  0  0  0  0  0  0
   34.8660   40.0370   20.7480 H   0  0  0  0  0  0  0  0  0  0  0  0
   34.1640   35.0960   24.3820 H   0  0  0  0  0  0  0  0  0  0  0  0
   32.4620   35.3280   23.7730 H   0  0  0  0  0  0  0  0  0  0  0  0
   33.4390   33.8880   23.2150 H   0  0  0  0  0  0  0  0  0  0  0  0
   33.5330   40.7530   25.0130 H   0  0  0  0  0  0  0  0  0  0  0  0
   38.3490   37.2300   14.9130 F   0  0  0  0  0  0  0  0  0  0  0  0
   32.8730   40.1260   27.3320 C   0  0  0  0  0  0  0  0  0  0  0  0
   31.6270   38.3910   26.0230 C   0  0  0  0  0  0  0  0  0  0  0  0
   34.0970   40.8550   27.5230 O   0  0  0  0  0  0  0  0  0  0  0  0
   34.1150   41.5730   26.8130 H   0  0  0  0  0  0  0  0  0  0  0  0
   32.0630   40.8400   27.0780 H   0  0  0  0  0  0  0  0  0  0  0  0
   32.6920   39.6440   28.3220 H   0  0  0  0  0  0  0  0  0  0  0  0
   31.2290   38.0190   26.9960 H   0  0  0  0  0  0  0  0  0  0  0  0
   30.9040   39.1230   25.6010 H   0  0  0  0  0  0  0  0  0  0  0  0
   31.6890   37.5170   25.3330 H   0  0  0  0  0  0  0  0  0  0  0  0
   33.7920   37.5870   27.6650 H   0  0  0  0  0  0  0  0  0  0  0  0
   34.1200   37.1420   25.9570 H   0  0  0  0  0  0  0  0  0  0  0  0
   35.0690   38.4760   26.7410 H   0  0  0  0  0  0  0  0  0  0  0  0
  1  3  2  0  0  0  0
  1  8  1  0  0  0  0
  1 23  1  0  0  0  0
  2 13  1  0  0  0  0
  2 19  2  0  0  0  0
  2 20  1  0  0  0  0
  3 14  1  0  0  0  0
  3 16  1  0  0  0  0
  4 18  2  0  0  0  0
  4 21  1  0  0  0  0
  4 22  1  0  0  0  0
  5 22  1  0  0  0  0
  5 24  1  0  0  0  0
  5 34  1  0  0  0  0
  5 35  1  0  0  0  0
  6  7  1  0  0  0  0
  6 11  1  0  0  0  0
  6 12  2  0  0  0  0
  7 13  2  0  0  0  0
  7 25  1  0  0  0  0
  8  9  2  0  0  0  0
  8 33  1  0  0  0  0
  9 10  1  0  0  0  0
  9 26  1  0  0  0  0
 10 14  2  0  0  0  0
 10 27  1  0  0  0  0
 11 20  1  0  0  0  0
 11 21  2  0  0  0  0
 12 18  1  0  0  0  0
 12 28  1  0  0  0  0
 13 17  1  0  0  0  0
 14 17  1  0  0  0  0
 15 20  1  0  0  0  0
 15 29  1  0  0  0  0
 15 30  1  0  0  0  0
 15 31  1  0  0  0  0
 22 32  1  0  0  0  0
 24 43  1  0  0  0  0
 24 44  1  0  0  0  0
 24 45  1  0  0  0  0
 34 36  1  0  0  0  0
 34 38  1  0  0  0  0
 34 39  1  0  0  0  0
 35 40  1  0  0  0  0
 35 41  1  0  0  0  0
 35 42  1  0  0  0  0
 36 37  1  0  0  0  0
M  END
$$$$
