p38a_3flw
 OpenBabel02232411163D
Structure written by MMmdl.
 49 51  0  0  0  0  0  0  0  0999 V2000
   38.2850   36.5490   17.1650 C   0  0  0  0  0  0  0  0  0  0  0  0
   37.6410   36.7060   15.9290 C   0  0  0  0  0  0  0  0  0  0  0  0
   33.7140   39.8880   27.5320 C   0  0  0  0  0  0  0  0  0  0  0  0
   35.1980   40.2450   27.6970 C   0  0  0  0  0  0  0  0  0  0  0  0
   31.8840   38.6850   26.2370 C   0  0  0  0  0  0  0  0  0  0  0  0
   33.8870   35.0080   23.6740 C   0  0  0  0  0  0  0  0  0  0  0  0
   38.0250   35.9700   19.4300 F   0  0  0  0  0  0  0  0  0  0  0  0
   37.4940   36.1070   18.2220 C   0  0  0  0  0  0  0  0  0  0  0  0
   38.3450   37.1940   14.9110 F   0  0  0  0  0  0  0  0  0  0  0  0
   36.2910   36.4160   15.7220 C   0  0  0  0  0  0  0  0  0  0  0  0
   35.5210   35.9620   16.7980 C   0  0  0  0  0  0  0  0  0  0  0  0
   36.1280   35.8010   18.0460 C   0  0  0  0  0  0  0  0  0  0  0  0
   35.3970   35.1840   19.0700 O   0  0  0  0  0  0  0  0  0  0  0  0
   35.0380   35.9960   20.1440 C   0  0  0  0  0  0  0  0  0  0  0  0
   35.0560   37.3470   20.2050 C   0  0  0  0  0  0  0  0  0  0  0  0
   34.6750   37.9880   21.4350 C   0  0  0  0  0  0  0  0  0  0  0  0
   34.6300   39.3990   21.5930 C   0  0  0  0  0  0  0  0  0  0  0  0
   34.3280   39.9970   22.7560 N   0  0  0  0  0  0  0  0  0  0  0  0
   34.5720   35.1140   21.2480 C   0  0  0  0  0  0  0  0  0  0  0  0
   34.4290   33.9130   21.1770 O   0  0  0  0  0  0  0  0  0  0  0  0
   34.2850   35.8020   22.4780 N   0  0  0  0  0  0  0  0  0  0  0  0
   34.3290   37.2020   22.5740 C   0  0  0  0  0  0  0  0  0  0  0  0
   34.0210   37.7790   23.7820 N   0  0  0  0  0  0  0  0  0  0  0  0
   34.0460   39.1570   23.8530 C   0  0  0  0  0  0  0  0  0  0  0  0
   33.8230   39.7710   25.0660 N   0  0  0  0  0  0  0  0  0  0  0  0
   33.3950   39.0240   26.2910 C   0  0  0  0  0  0  0  0  0  0  0  0
   31.5800   37.2310   26.6210 C   0  0  0  0  0  0  0  0  0  0  0  0
   31.7440   36.9890   28.0310 O   0  0  0  0  0  0  0  0  0  0  0  0
   35.4210   41.6460   27.4410 O   0  0  0  0  0  0  0  0  0  0  0  0
   39.3410   36.7980   17.2990 H   0  0  0  0  0  0  0  0  0  0  0  0
   33.3720   39.3230   28.4350 H   0  0  0  0  0  0  0  0  0  0  0  0
   33.1210   40.8360   27.4930 H   0  0  0  0  0  0  0  0  0  0  0  0
   35.5300   40.1260   28.7540 H   0  0  0  0  0  0  0  0  0  0  0  0
   35.8390   39.6590   27.0000 H   0  0  0  0  0  0  0  0  0  0  0  0
   31.3170   39.3650   26.9150 H   0  0  0  0  0  0  0  0  0  0  0  0
   31.4960   38.8510   25.2010 H   0  0  0  0  0  0  0  0  0  0  0  0
   34.4870   35.3310   24.5680 H   0  0  0  0  0  0  0  0  0  0  0  0
   32.7990   35.1750   23.8980 H   0  0  0  0  0  0  0  0  0  0  0  0
   34.0630   33.9160   23.4920 H   0  0  0  0  0  0  0  0  0  0  0  0
   35.8250   36.5540   14.7430 H   0  0  0  0  0  0  0  0  0  0  0  0
   34.4560   35.7520   16.6560 H   0  0  0  0  0  0  0  0  0  0  0  0
   35.3570   37.9770   19.3650 H   0  0  0  0  0  0  0  0  0  0  0  0
   34.8400   40.0550   20.7310 H   0  0  0  0  0  0  0  0  0  0  0  0
   33.7080   40.7990   25.0980 H   0  0  0  0  0  0  0  0  0  0  0  0
   33.9990   38.0750   26.3370 H   0  0  0  0  0  0  0  0  0  0  0  0
   30.4980   37.0050   26.4660 H   0  0  0  0  0  0  0  0  0  0  0  0
   32.2290   36.5200   26.0580 H   0  0  0  0  0  0  0  0  0  0  0  0
   32.6930   37.1160   28.2780 H   0  0  0  0  0  0  0  0  0  0  0  0
   34.9110   41.8780   26.6070 H   0  0  0  0  0  0  0  0  0  0  0  0
  1  2  2  0  0  0  0
  1  8  1  0  0  0  0
  1 30  1  0  0  0  0
  2  9  1  0  0  0  0
  2 10  1  0  0  0  0
  3  4  1  0  0  0  0
  3 26  1  0  0  0  0
  3 31  1  0  0  0  0
  3 32  1  0  0  0  0
  4 29  1  0  0  0  0
  4 33  1  0  0  0  0
  4 34  1  0  0  0  0
  5 26  1  0  0  0  0
  5 27  1  0  0  0  0
  5 35  1  0  0  0  0
  5 36  1  0  0  0  0
  6 21  1  0  0  0  0
  6 37  1  0  0  0  0
  6 38  1  0  0  0  0
  6 39  1  0  0  0  0
  7  8  1  0  0  0  0
  8 12  2  0  0  0  0
 10 11  2  0  0  0  0
 10 40  1  0  0  0  0
 11 12  1  0  0  0  0
 11 41  1  0  0  0  0
 12 13  1  0  0  0  0
 13 14  1  0  0  0  0
 14 15  2  0  0  0  0
 14 19  1  0  0  0  0
 15 16  1  0  0  0  0
 15 42  1  0  0  0  0
 16 17  2  0  0  0  0
 16 22  1  0  0  0  0
 17 18  1  0  0  0  0
 17 43  1  0  0  0  0
 18 24  2  0  0  0  0
 19 20  2  0  0  0  0
 19 21  1  0  0  0  0
 21 22  1  0  0  0  0
 22 23  2  0  0  0  0
 23 24  1  0  0  0  0
 24 25  1  0  0  0  0
 25 26  1  0  0  0  0
 25 44  1  0  0  0  0
 26 45  1  0  0  0  0
 27 28  1  0  0  0  0
 27 46  1  0  0  0  0
 27 47  1  0  0  0  0
 28 48  1  0  0  0  0
 29 49  1  0  0  0  0
M  END
$$$$
