27
 OpenBabel02232411163D
Structure written by MMmdl.
 38 40  0  0  0  0  0  0  0  0999 V2000
    3.2660  -47.9080    7.1770 O   0  0  0  0  0  0  0  0  0  0  0  0
    2.9430  -49.0640    6.8740 C   0  0  0  0  0  0  0  0  0  0  0  0
    3.7140  -50.0400    6.7610 O   0  5  0  0  0  0  0  0  0  0  0  0
    1.4630  -49.3740    6.5970 C   0  0  0  0  0  0  0  0  0  0  0  0
   -0.3800  -50.7220    6.5020 C   0  0  0  0  0  0  0  0  0  0  0  0
   -1.3070  -51.7740    6.6150 C   0  0  0  0  0  0  0  0  0  0  0  0
   -2.6040  -51.5320    6.1900 C   0  0  0  0  0  0  0  0  0  0  0  0
   -2.9690  -50.2810    5.6380 C   0  0  0  0  0  0  0  0  0  0  0  0
   -2.0560  -49.2430    5.5140 C   0  0  0  0  0  0  0  0  0  0  0  0
   -0.7420  -49.4260    5.9780 C   0  0  0  0  0  0  0  0  0  0  0  0
    0.4330  -48.5880    6.0810 C   0  0  0  0  0  0  0  0  0  0  0  0
    0.5330  -47.1540    5.7010 C   0  0  0  0  0  0  0  0  0  0  0  0
   -0.5940  -46.2530    6.2450 C   0  0  0  0  0  0  0  0  0  0  0  0
   -0.7840  -46.3180    7.7550 C   0  0  0  0  0  0  0  0  0  0  0  0
   -1.8730  -47.2260    8.1240 O   0  0  0  0  0  0  0  0  0  0  0  0
   -3.1250  -46.7160    8.3280 C   0  0  0  0  0  0  0  0  0  0  0  0
   -3.9180  -47.4870    9.2110 C   0  0  0  0  0  0  0  0  0  0  0  0
   -5.2050  -47.0570    9.5070 C   0  0  0  0  0  0  0  0  0  0  0  0
   -5.7160  -45.8790    8.9400 C   0  0  0  0  0  0  0  0  0  0  0  0
   -4.9360  -45.1510    8.0410 C   0  0  0  0  0  0  0  0  0  0  0  0
   -3.6330  -45.5540    7.7280 C   0  0  0  0  0  0  0  0  0  0  0  0
   -1.0250  -52.7440    7.0250 H   0  0  0  0  0  0  0  0  0  0  0  0
   -3.3630  -52.3100    6.2760 H   0  0  0  0  0  0  0  0  0  0  0  0
   -3.9970  -50.1400    5.3010 H   0  0  0  0  0  0  0  0  0  0  0  0
   -2.3680  -48.3060    5.0550 H   0  0  0  0  0  0  0  0  0  0  0  0
    0.5070  -47.0760    4.5870 H   0  0  0  0  0  0  0  0  0  0  0  0
    1.5160  -46.7440    6.0610 H   0  0  0  0  0  0  0  0  0  0  0  0
   -0.3490  -45.1980    5.9860 H   0  0  0  0  0  0  0  0  0  0  0  0
   -1.5590  -46.5190    5.7510 H   0  0  0  0  0  0  0  0  0  0  0  0
   -0.9760  -45.3240    8.2100 H   0  0  0  0  0  0  0  0  0  0  0  0
    0.0680  -46.8420    8.2460 H   0  0  0  0  0  0  0  0  0  0  0  0
   -3.5300  -48.4040    9.6490 H   0  0  0  0  0  0  0  0  0  0  0  0
   -3.0550  -44.9750    7.0140 H   0  0  0  0  0  0  0  0  0  0  0  0
    0.9740  -50.6680    6.8570 N   0  0  0  0  0  0  0  0  0  0  0  0
    1.4900  -51.4590    7.2260 H   0  0  0  0  0  0  0  0  0  0  0  0
   -5.3550  -44.2580    7.5720 H   0  0  0  0  0  0  0  0  0  0  0  0
   -6.7230  -45.5480    9.1880 H   0  0  0  0  0  0  0  0  0  0  0  0
   -5.8300  -47.6370   10.1900 H   0  0  0  0  0  0  0  0  0  0  0  0
  1  2  2  0  0  0  0
  2  3  1  0  0  0  0
  2  4  1  0  0  0  0
  4 11  2  0  0  0  0
  4 34  1  0  0  0  0
  5  6  2  0  0  0  0
  5 10  1  0  0  0  0
  5 34  1  0  0  0  0
  6  7  1  0  0  0  0
  6 22  1  0  0  0  0
  7  8  2  0  0  0  0
  7 23  1  0  0  0  0
  8  9  1  0  0  0  0
  8 24  1  0  0  0  0
  9 10  2  0  0  0  0
  9 25  1  0  0  0  0
 10 11  1  0  0  0  0
 11 12  1  0  0  0  0
 12 26  1  0  0  0  0
 12 27  1  0  0  0  0
 12 13  1  0  0  0  0
 13 14  1  0  0  0  0
 13 28  1  0  0  0  0
 13 29  1  0  0  0  0
 14 15  1  0  0  0  0
 14 30  1  0  0  0  0
 14 31  1  0  0  0  0
 15 16  1  0  0  0  0
 16 17  2  0  0  0  0
 16 21  1  0  0  0  0
 17 18  1  0  0  0  0
 17 32  1  0  0  0  0
 18 19  2  0  0  0  0
 18 38  1  0  0  0  0
 19 20  1  0  0  0  0
 19 37  1  0  0  0  0
 20 21  2  0  0  0  0
 20 36  1  0  0  0  0
 21 33  1  0  0  0  0
 34 35  1  0  0  0  0
M  CHG  1   3  -1
M  END
$$$$
