18659-1
 OpenBabel02232411163D
Structure written by MMmdl.
 50 51  0  0  0  0  0  0  0  0999 V2000
   24.2140   13.7250   28.5260 C   0  0  0  0  0  0  0  0  0  0  0  0
   23.5450   13.6150   29.8010 O   0  0  0  0  0  0  0  0  0  0  0  0
   24.0510   12.5490   30.6260 C   0  0  0  0  0  0  0  0  0  0  0  0
   23.3500   11.2090   30.3650 C   0  0  0  0  0  0  0  0  0  0  0  0
   22.1570   11.2690   31.2350 O   0  0  0  0  0  0  0  0  0  0  0  0
   21.5350   10.1140   31.5710 C   0  0  0  0  0  0  0  0  0  0  0  0
   21.9920    8.9350   31.0900 N   0  0  0  0  0  0  0  0  0  0  0  0
   21.2790    7.7900   31.4240 C   0  0  0  0  0  0  0  0  0  0  0  0
   20.1480    7.8190   32.2350 C   0  0  0  0  0  0  0  0  0  0  0  0
   19.6770    9.0620   32.7340 C   0  0  0  0  0  0  0  0  0  0  0  0
   18.5440    9.0950   33.5080 N   0  0  0  0  0  0  0  0  0  0  0  0
   20.3830   10.2630   32.4000 C   0  0  0  0  0  0  0  0  0  0  0  0
   19.9880   11.5580   32.7960 C   0  0  0  0  0  0  0  0  0  0  0  0
   19.7110   12.6510   33.0720 N   0  0  0  0  0  0  0  0  0  0  0  0
   21.8330    6.6320   30.8380 N   0  0  0  0  0  0  0  0  0  0  0  0
   21.2760    5.3300   30.8240 C   0  0  0  0  0  0  0  0  0  0  0  0
   20.2200    5.0580   31.3540 O   0  0  0  0  0  0  0  0  0  0  0  0
   22.1030    4.3360   30.0190 C   0  0  0  0  0  0  0  0  0  0  0  0
   23.4440    4.0650   30.6360 C   0  0  0  0  0  0  0  0  0  0  0  0
   24.5560    4.9100   30.3470 C   0  0  0  0  0  0  0  0  0  0  0  0
   24.2410    5.9410   29.4670 O   0  0  0  0  0  0  0  0  0  0  0  0
   25.2210    7.0010   29.3040 C   0  0  0  0  0  0  0  0  0  0  0  0
   25.8140    4.6760   30.8920 C   0  0  0  0  0  0  0  0  0  0  0  0
   26.0010    3.5940   31.7650 C   0  0  0  0  0  0  0  0  0  0  0  0
   24.9180    2.7660   32.0560 C   0  0  0  0  0  0  0  0  0  0  0  0
   23.6400    2.9840   31.4830 C   0  0  0  0  0  0  0  0  0  0  0  0
   24.9330    1.6730   32.8970 O   0  0  0  0  0  0  0  0  0  0  0  0
   26.1860    1.3490   33.5530 C   0  0  0  0  0  0  0  0  0  0  0  0
   25.2840   13.9890   28.6790 H   0  0  0  0  0  0  0  0  0  0  0  0
   24.1170   12.7790   27.9510 H   0  0  0  0  0  0  0  0  0  0  0  0
   23.6640   14.5560   28.0320 H   0  0  0  0  0  0  0  0  0  0  0  0
   25.1500   12.4220   30.4840 H   0  0  0  0  0  0  0  0  0  0  0  0
   23.8090   12.9250   31.6480 H   0  0  0  0  0  0  0  0  0  0  0  0
   22.9830   11.0970   29.3220 H   0  0  0  0  0  0  0  0  0  0  0  0
   23.9970   10.3510   30.6680 H   0  0  0  0  0  0  0  0  0  0  0  0
   19.6050    6.9030   32.4790 H   0  0  0  0  0  0  0  0  0  0  0  0
   18.0500    8.2230   33.7740 H   0  0  0  0  0  0  0  0  0  0  0  0
   18.1540    9.9770   33.8400 H   0  0  0  0  0  0  0  0  0  0  0  0
   22.7420    6.7820   30.3300 H   0  0  0  0  0  0  0  0  0  0  0  0
   21.5260    3.3790   29.9300 H   0  0  0  0  0  0  0  0  0  0  0  0
   22.2550    4.7580   28.9870 H   0  0  0  0  0  0  0  0  0  0  0  0
   26.1010    6.6080   28.7510 H   0  0  0  0  0  0  0  0  0  0  0  0
   25.5070    7.4260   30.2910 H   0  0  0  0  0  0  0  0  0  0  0  0
   24.6530    7.7410   28.6960 H   0  0  0  0  0  0  0  0  0  0  0  0
   26.6710    5.3120   30.6580 H   0  0  0  0  0  0  0  0  0  0  0  0
   26.9950    3.4310   32.1860 H   0  0  0  0  0  0  0  0  0  0  0  0
   22.8320    2.2870   31.7170 H   0  0  0  0  0  0  0  0  0  0  0  0
   25.9020    0.4560   34.1580 H   0  0  0  0  0  0  0  0  0  0  0  0
   26.5100    2.1900   34.2030 H   0  0  0  0  0  0  0  0  0  0  0  0
   26.9590    1.0890   32.7970 H   0  0  0  0  0  0  0  0  0  0  0  0
  1  2  1  0  0  0  0
  1 29  1  0  0  0  0
  1 30  1  0  0  0  0
  1 31  1  0  0  0  0
  2  3  1  0  0  0  0
  3  4  1  0  0  0  0
  3 32  1  0  0  0  0
  3 33  1  0  0  0  0
  4  5  1  0  0  0  0
  4 34  1  0  0  0  0
  4 35  1  0  0  0  0
  5  6  1  0  0  0  0
  6 12  2  0  0  0  0
  6  7  1  0  0  0  0
  7  8  2  0  0  0  0
  8  9  1  0  0  0  0
  8 15  1  0  0  0  0
  9 10  2  0  0  0  0
  9 36  1  0  0  0  0
 10 11  1  0  0  0  0
 10 12  1  0  0  0  0
 11 37  1  0  0  0  0
 11 38  1  0  0  0  0
 12 13  1  0  0  0  0
 13 14  3  0  0  0  0
 15 16  1  0  0  0  0
 15 39  1  0  0  0  0
 16 17  2  0  0  0  0
 16 18  1  0  0  0  0
 18 19  1  0  0  0  0
 18 40  1  0  0  0  0
 18 41  1  0  0  0  0
 19 26  2  0  0  0  0
 19 20  1  0  0  0  0
 20 21  1  0  0  0  0
 20 23  2  0  0  0  0
 21 22  1  0  0  0  0
 22 42  1  0  0  0  0
 22 43  1  0  0  0  0
 22 44  1  0  0  0  0
 23 24  1  0  0  0  0
 23 45  1  0  0  0  0
 24 25  2  0  0  0  0
 24 46  1  0  0  0  0
 25 26  1  0  0  0  0
 25 27  1  0  0  0  0
 26 47  1  0  0  0  0
 27 28  1  0  0  0  0
 28 48  1  0  0  0  0
 28 49  1  0  0  0  0
 28 50  1  0  0  0  0
M  END
$$$$
