ejm_55
                    3D
 Schrodinger Suite 2022-3.
 33 34  0  0  1  0  0  0  0  0999 V2000
   -3.0880   22.6000  -29.6340 C   0  0  0  0  0  0  0  0  0  0  0  0
   -3.5440   21.5110  -28.8720 C   0  0  0  0  0  0  0  0  0  0  0  0
   -2.7280   20.8850  -27.9290 C   0  0  0  0  0  0  0  0  0  0  0  0
   -5.1660   25.1790  -31.5270 C   0  0  0  0  0  0  0  0  0  0  0  0
   -3.9640   23.1030  -30.7430 C   0  0  0  0  0  0  0  0  0  0  0  0
   -5.8370   24.5790  -32.6060 C   0  0  0  0  0  0  0  0  0  0  0  0
   -6.7460   25.3490  -33.3420 C   0  0  0  0  0  0  0  0  0  0  0  0
   -1.8030   23.0850  -29.3650 C   0  0  0  0  0  0  0  0  0  0  0  0
   -1.4360   21.3720  -27.7070 C   0  0  0  0  0  0  0  0  0  0  0  0
   -0.9740   22.4850  -28.4140 C   0  0  0  0  0  0  0  0  0  0  0  0
   -5.1450   20.9450  -29.1110 Cl  0  0  0  0  0  0  0  0  0  0  0  0
   -4.3820   22.3650  -31.6110 O   0  0  0  0  0  0  0  0  0  0  0  0
   -4.2760   24.4760  -30.6680 N   0  0  0  0  0  0  0  0  0  0  0  0
   -7.0080   26.6540  -33.0750 N   0  0  0  0  0  0  0  0  0  0  0  0
   -6.3280   27.2300  -32.0240 C   0  0  0  0  0  0  0  0  0  0  0  0
   -5.3950   26.5410  -31.2370 C   0  0  0  0  0  0  0  0  0  0  0  0
   -6.6860   28.5840  -31.7810 N   0  0  0  0  0  0  0  0  0  0  0  0
   -5.9280   29.5030  -31.0390 C   0  0  0  0  0  0  0  0  0  0  0  0
   -4.8840   29.3250  -30.4510 O   0  0  0  0  0  0  0  0  0  0  0  0
   -1.2000   24.4580  -30.1970 Cl  0  0  0  0  0  0  0  0  0  0  0  0
   -3.0770   20.0190  -27.3610 H   0  0  0  0  0  0  0  0  0  0  0  0
   -5.6810   23.5290  -32.8710 H   0  0  0  0  0  0  0  0  0  0  0  0
   -7.3010   24.9080  -34.1870 H   0  0  0  0  0  0  0  0  0  0  0  0
   -0.7860   20.8840  -26.9720 H   0  0  0  0  0  0  0  0  0  0  0  0
    0.0260   22.8760  -28.2090 H   0  0  0  0  0  0  0  0  0  0  0  0
   -3.8580   25.0260  -29.8960 H   0  0  0  0  0  0  0  0  0  0  0  0
   -4.8610   27.0410  -30.4240 H   0  0  0  0  0  0  0  0  0  0  0  0
   -7.6220   28.9100  -32.1250 H   0  0  0  0  0  0  0  0  0  0  0  0
   -6.6260   30.6930  -31.0850 O   0  0  0  0  0  0  0  0  0  0  0  0
   -6.0390   31.8490  -30.4280 C   0  0  0  0  0  0  0  0  0  0  0  0
   -5.0200   32.0370  -30.8250 H   0  0  0  0  0  0  0  0  0  0  0  0
   -6.7580   32.6440  -30.7430 H   0  0  0  0  0  0  0  0  0  0  0  0
   -6.0400   31.6930  -29.3310 H   0  0  0  0  0  0  0  0  0  0  0  0
  1  2  2  0  0  0  0
  1  5  1  0  0  0  0
  1  8  1  0  0  0  0
  2  3  1  0  0  0  0
  2 11  1  0  0  0  0
  3  9  2  0  0  0  0
  3 21  1  0  0  0  0
  4  6  1  0  0  0  0
  4 13  1  0  0  0  0
  4 16  2  0  0  0  0
  5 12  2  0  0  0  0
  5 13  1  0  0  0  0
  6  7  2  0  0  0  0
  6 22  1  0  0  0  0
  7 14  1  0  0  0  0
  7 23  1  0  0  0  0
  8 10  2  0  0  0  0
  8 20  1  0  0  0  0
  9 10  1  0  0  0  0
  9 24  1  0  0  0  0
 10 25  1  0  0  0  0
 13 26  1  0  0  0  0
 14 15  2  0  0  0  0
 15 16  1  0  0  0  0
 15 17  1  0  0  0  0
 16 27  1  0  0  0  0
 17 18  1  0  0  0  0
 17 28  1  0  0  0  0
 18 19  2  0  0  0  0
 18 29  1  0  0  0  0
 29 30  1  0  0  0  0
 30 31  1  0  0  0  0
 30 32  1  0  0  0  0
 30 33  1  0  0  0  0
M  END
$$$$
