18632-1
 OpenBabel02232411163D
Structure written by MMmdl.
 42 43  0  0  0  0  0  0  0  0999 V2000
   23.1670   10.8780   29.0510 C   0  0  0  0  0  0  0  0  0  0  0  0
   23.4670   11.0730   30.5210 C   0  0  0  0  0  0  0  0  0  0  0  0
   22.2120   11.1390   31.3000 O   0  0  0  0  0  0  0  0  0  0  0  0
   21.5680    9.9990   31.6310 C   0  0  0  0  0  0  0  0  0  0  0  0
   22.0360    8.8090   31.1900 N   0  0  0  0  0  0  0  0  0  0  0  0
   21.3010    7.6760   31.5050 C   0  0  0  0  0  0  0  0  0  0  0  0
   20.1470    7.7180   32.2800 C   0  0  0  0  0  0  0  0  0  0  0  0
   19.6700    8.9710   32.7510 C   0  0  0  0  0  0  0  0  0  0  0  0
   18.5170    9.0220   33.4940 N   0  0  0  0  0  0  0  0  0  0  0  0
   20.3920   10.1630   32.4230 C   0  0  0  0  0  0  0  0  0  0  0  0
   19.9980   11.4640   32.8020 C   0  0  0  0  0  0  0  0  0  0  0  0
   19.7250   12.5590   33.0710 N   0  0  0  0  0  0  0  0  0  0  0  0
   21.8600    6.5140   30.9200 N   0  0  0  0  0  0  0  0  0  0  0  0
   21.2730    5.2260   30.8730 C   0  0  0  0  0  0  0  0  0  0  0  0
   20.2330    4.9620   31.4350 O   0  0  0  0  0  0  0  0  0  0  0  0
   22.0360    4.2490   29.9920 C   0  0  0  0  0  0  0  0  0  0  0  0
   23.3850    3.8810   30.5520 C   0  0  0  0  0  0  0  0  0  0  0  0
   24.5260    4.5770   30.1460 C   0  0  0  0  0  0  0  0  0  0  0  0
   25.7750    4.2110   30.6920 C   0  0  0  0  0  0  0  0  0  0  0  0
   26.8120    4.9580   30.1830 O   0  0  0  0  0  0  0  0  0  0  0  0
   28.1550    4.6820   30.6590 C   0  0  0  0  0  0  0  0  0  0  0  0
   25.8930    3.1820   31.6350 C   0  0  0  0  0  0  0  0  0  0  0  0
   24.7380    2.4910   32.0120 C   0  0  0  0  0  0  0  0  0  0  0  0
   23.4940    2.8250   31.4720 C   0  0  0  0  0  0  0  0  0  0  0  0
   24.1050   11.0260   28.4600 H   0  0  0  0  0  0  0  0  0  0  0  0
   22.7880    9.8500   28.8450 H   0  0  0  0  0  0  0  0  0  0  0  0
   22.4150   11.6150   28.6900 H   0  0  0  0  0  0  0  0  0  0  0  0
   24.1200   10.2720   30.9330 H   0  0  0  0  0  0  0  0  0  0  0  0
   23.8630   12.0950   30.7400 H   0  0  0  0  0  0  0  0  0  0  0  0
   19.5900    6.8090   32.5160 H   0  0  0  0  0  0  0  0  0  0  0  0
   18.0210    8.1550   33.7740 H   0  0  0  0  0  0  0  0  0  0  0  0
   18.1280    9.9100   33.8100 H   0  0  0  0  0  0  0  0  0  0  0  0
   22.7610    6.6640   30.4250 H   0  0  0  0  0  0  0  0  0  0  0  0
   21.4210    3.3160   29.8810 H   0  0  0  0  0  0  0  0  0  0  0  0
   22.1510    4.7100   28.9750 H   0  0  0  0  0  0  0  0  0  0  0  0
   24.4820    5.3850   29.4150 H   0  0  0  0  0  0  0  0  0  0  0  0
   28.4470    3.6400   30.4030 H   0  0  0  0  0  0  0  0  0  0  0  0
   28.7570    5.4200   30.0780 H   0  0  0  0  0  0  0  0  0  0  0  0
   28.2220    4.8750   31.7500 H   0  0  0  0  0  0  0  0  0  0  0  0
   26.8520    2.9000   32.0710 H   0  0  0  0  0  0  0  0  0  0  0  0
   24.8160    1.6740   32.7370 H   0  0  0  0  0  0  0  0  0  0  0  0
   22.6180    2.2450   31.7610 H   0  0  0  0  0  0  0  0  0  0  0  0
  1  2  1  0  0  0  0
  1 25  1  0  0  0  0
  1 26  1  0  0  0  0
  1 27  1  0  0  0  0
  2  3  1  0  0  0  0
  2 28  1  0  0  0  0
  2 29  1  0  0  0  0
  3  4  1  0  0  0  0
  4 10  2  0  0  0  0
  4  5  1  0  0  0  0
  5  6  2  0  0  0  0
  6  7  1  0  0  0  0
  6 13  1  0  0  0  0
  7  8  2  0  0  0  0
  7 30  1  0  0  0  0
  8  9  1  0  0  0  0
  8 10  1  0  0  0  0
  9 31  1  0  0  0  0
  9 32  1  0  0  0  0
 10 11  1  0  0  0  0
 11 12  3  0  0  0  0
 13 14  1  0  0  0  0
 13 33  1  0  0  0  0
 14 15  2  0  0  0  0
 14 16  1  0  0  0  0
 16 17  1  0  0  0  0
 16 34  1  0  0  0  0
 16 35  1  0  0  0  0
 17 24  2  0  0  0  0
 17 18  1  0  0  0  0
 18 19  2  0  0  0  0
 18 36  1  0  0  0  0
 19 20  1  0  0  0  0
 19 22  1  0  0  0  0
 20 21  1  0  0  0  0
 21 37  1  0  0  0  0
 21 38  1  0  0  0  0
 21 39  1  0  0  0  0
 22 23  2  0  0  0  0
 22 40  1  0  0  0  0
 23 24  1  0  0  0  0
 23 41  1  0  0  0  0
 24 42  1  0  0  0  0
M  END
$$$$
