18626-1
 OpenBabel02232411163D
Structure written by MMmdl.
 38 39  0  0  0  0  0  0  0  0999 V2000
   23.8510   12.6750   30.3530 C   0  0  0  0  0  0  0  0  0  0  0  0
   23.4210   11.2240   30.4530 C   0  0  0  0  0  0  0  0  0  0  0  0
   22.1750   11.3010   31.2590 O   0  0  0  0  0  0  0  0  0  0  0  0
   21.5460   10.1560   31.5930 C   0  0  0  0  0  0  0  0  0  0  0  0
   22.0290    8.9720   31.1460 N   0  0  0  0  0  0  0  0  0  0  0  0
   21.3100    7.8290   31.4620 C   0  0  0  0  0  0  0  0  0  0  0  0
   20.1580    7.8550   32.2410 C   0  0  0  0  0  0  0  0  0  0  0  0
   19.6620    9.1010   32.7130 C   0  0  0  0  0  0  0  0  0  0  0  0
   18.5160    9.1370   33.4650 N   0  0  0  0  0  0  0  0  0  0  0  0
   20.3630   10.3030   32.3780 C   0  0  0  0  0  0  0  0  0  0  0  0
   19.9350   11.5990   32.7360 C   0  0  0  0  0  0  0  0  0  0  0  0
   19.6300   12.6900   32.9850 N   0  0  0  0  0  0  0  0  0  0  0  0
   21.8860    6.6710   30.8850 N   0  0  0  0  0  0  0  0  0  0  0  0
   21.3680    5.3530   30.9110 C   0  0  0  0  0  0  0  0  0  0  0  0
   20.3340    5.0610   31.4740 O   0  0  0  0  0  0  0  0  0  0  0  0
   22.2180    4.3660   30.1250 C   0  0  0  0  0  0  0  0  0  0  0  0
   23.5840    4.1890   30.7300 C   0  0  0  0  0  0  0  0  0  0  0  0
   23.7490    3.3320   31.8290 C   0  0  0  0  0  0  0  0  0  0  0  0
   25.0180    3.2020   32.3950 C   0  0  0  0  0  0  0  0  0  0  0  0
   25.2090    2.1900   33.7780 Cl  0  0  0  0  0  0  0  0  0  0  0  0
   26.1340    3.8670   31.8830 C   0  0  0  0  0  0  0  0  0  0  0  0
   25.9580    4.7080   30.7810 C   0  0  0  0  0  0  0  0  0  0  0  0
   24.6920    4.8760   30.2110 C   0  0  0  0  0  0  0  0  0  0  0  0
   24.7630   12.7340   29.7080 H   0  0  0  0  0  0  0  0  0  0  0  0
   23.0530   13.2970   29.8840 H   0  0  0  0  0  0  0  0  0  0  0  0
   24.0940   13.0970   31.3540 H   0  0  0  0  0  0  0  0  0  0  0  0
   23.1540   10.7890   29.4630 H   0  0  0  0  0  0  0  0  0  0  0  0
   24.1540   10.5950   31.0050 H   0  0  0  0  0  0  0  0  0  0  0  0
   19.6170    6.9370   32.4810 H   0  0  0  0  0  0  0  0  0  0  0  0
   18.0130    8.2660   33.7220 H   0  0  0  0  0  0  0  0  0  0  0  0
   18.1120   10.0210   33.7740 H   0  0  0  0  0  0  0  0  0  0  0  0
   22.7750    6.8330   30.3690 H   0  0  0  0  0  0  0  0  0  0  0  0
   21.6930    3.3730   30.1000 H   0  0  0  0  0  0  0  0  0  0  0  0
   22.3060    4.7330   29.0680 H   0  0  0  0  0  0  0  0  0  0  0  0
   22.9040    2.7660   32.2240 H   0  0  0  0  0  0  0  0  0  0  0  0
   27.1270    3.7380   32.3250 H   0  0  0  0  0  0  0  0  0  0  0  0
   26.8170    5.2420   30.3600 H   0  0  0  0  0  0  0  0  0  0  0  0
   24.5880    5.5450   29.3530 H   0  0  0  0  0  0  0  0  0  0  0  0
  1  2  1  0  0  0  0
  1 24  1  0  0  0  0
  1 25  1  0  0  0  0
  1 26  1  0  0  0  0
  2  3  1  0  0  0  0
  2 27  1  0  0  0  0
  2 28  1  0  0  0  0
  3  4  1  0  0  0  0
  4 10  2  0  0  0  0
  4  5  1  0  0  0  0
  5  6  2  0  0  0  0
  6  7  1  0  0  0  0
  6 13  1  0  0  0  0
  7  8  2  0  0  0  0
  7 29  1  0  0  0  0
  8  9  1  0  0  0  0
  8 10  1  0  0  0  0
  9 30  1  0  0  0  0
  9 31  1  0  0  0  0
 10 11  1  0  0  0  0
 11 12  3  0  0  0  0
 13 14  1  0  0  0  0
 13 32  1  0  0  0  0
 14 15  2  0  0  0  0
 14 16  1  0  0  0  0
 16 17  1  0  0  0  0
 16 33  1  0  0  0  0
 16 34  1  0  0  0  0
 17 23  2  0  0  0  0
 17 18  1  0  0  0  0
 18 19  2  0  0  0  0
 18 35  1  0  0  0  0
 19 20  1  0  0  0  0
 19 21  1  0  0  0  0
 21 22  2  0  0  0  0
 21 36  1  0  0  0  0
 22 23  1  0  0  0  0
 22 37  1  0  0  0  0
 23 38  1  0  0  0  0
M  END
$$$$
