20667(2qbp)
 OpenBabel02232411173D
Structure written by MMmdl.
 60 63  0  0  0  0  0  0  0  0999 V2000
   42.5690   17.9420   12.6630 O   0  0  0  0  0  0  0  0  0  0  0  0
   41.4210   17.6910   13.0440 C   0  0  0  0  0  0  0  0  0  0  0  0
   40.3970   18.3620   12.7880 O   0  5  0  0  0  0  0  0  0  0  0  0
   41.1770   16.4280   13.9220 C   0  0  0  0  0  0  0  0  0  0  0  0
   42.5070   15.8190   13.9240 O   0  0  0  0  0  0  0  0  0  0  0  0
   42.6910   14.8700   14.8810 C   0  0  0  0  0  0  0  0  0  0  0  0
   42.0970   13.5500   14.8130 C   0  0  0  0  0  0  0  0  0  0  0  0
   40.9210   13.1170   13.3800 Br  0  0  0  0  0  0  0  0  0  0  0  0
   42.4780   12.6910   15.8100 C   0  0  0  0  0  0  0  0  0  0  0  0
   42.0560   11.3390   16.1270 C   0  0  0  0  0  0  0  0  0  0  0  0
   42.8370   10.4770   16.9380 C   0  0  0  0  0  0  0  0  0  0  0  0
   42.3740    9.2050   17.2520 C   0  0  0  0  0  0  0  0  0  0  0  0
   41.1530    8.7140   16.7600 C   0  0  0  0  0  0  0  0  0  0  0  0
   40.3780    9.5470   15.9460 C   0  0  0  0  0  0  0  0  0  0  0  0
   39.0750    9.2310   15.4430 N   0  0  0  0  0  0  0  0  0  0  0  0
   38.4950    7.8720   15.5470 C   0  0  0  0  0  0  0  0  0  0  0  0
   36.9800    7.9640   15.2230 C   0  0  0  0  0  0  0  0  0  0  0  0
   36.6900    8.1540   13.7240 C   0  0  0  0  0  0  0  0  0  0  0  0
   37.3370    7.1240   12.8660 N   0  0  0  0  0  0  0  0  0  0  0  0
   36.3950    5.7960   12.3770 S   0  0  0  0  0  0  0  0  0  0  0  0
   37.1720    5.0040   11.4320 O   0  0  0  0  0  0  0  0  0  0  0  0
   35.1990    6.3950   11.7560 O   0  0  0  0  0  0  0  0  0  0  0  0
   35.9300    4.8290   13.7710 C   0  0  0  0  0  0  0  0  0  0  0  0
   35.7380    3.4010   13.3760 C   0  0  0  0  0  0  0  0  0  0  0  0
   34.5200    2.9720   12.8240 C   0  0  0  0  0  0  0  0  0  0  0  0
   34.3580    1.6390   12.4370 C   0  0  0  0  0  0  0  0  0  0  0  0
   35.4020    0.7240   12.6000 C   0  0  0  0  0  0  0  0  0  0  0  0
   36.6110    1.1450   13.1620 C   0  0  0  0  0  0  0  0  0  0  0  0
   36.7810    2.4760   13.5520 C   0  0  0  0  0  0  0  0  0  0  0  0
   38.7900    6.9620   13.1470 C   0  0  0  0  0  0  0  0  0  0  0  0
   39.1400    6.7970   14.6340 C   0  0  0  0  0  0  0  0  0  0  0  0
   40.8320   10.8550   15.6540 C   0  0  0  0  0  0  0  0  0  0  0  0
   43.6380   13.5280   16.8240 S   0  0  0  0  0  0  0  0  0  0  0  0
   43.5680   15.0250   15.9230 C   0  0  0  0  0  0  0  0  0  0  0  0
   44.3950   16.2400   16.3590 C   0  0  0  0  0  0  0  0  0  0  0  0
   45.0180   16.0910   17.4350 O   0  0  0  0  0  0  0  0  0  0  0  0
   44.4240   17.2330   15.6330 O   0  5  0  0  0  0  0  0  0  0  0  0
   40.4500   15.7400   13.4420 H   0  0  0  0  0  0  0  0  0  0  0  0
   40.8510   16.6790   14.9510 H   0  0  0  0  0  0  0  0  0  0  0  0
   43.8090   10.7880   17.3280 H   0  0  0  0  0  0  0  0  0  0  0  0
   42.9650    8.5510   17.8990 H   0  0  0  0  0  0  0  0  0  0  0  0
   40.8340    7.7070   17.0170 H   0  0  0  0  0  0  0  0  0  0  0  0
   38.8850    9.6490   14.5150 H   0  0  0  0  0  0  0  0  0  0  0  0
   38.6020    7.5200   16.6100 H   0  0  0  0  0  0  0  0  0  0  0  0
   36.5000    7.0260   15.5940 H   0  0  0  0  0  0  0  0  0  0  0  0
   36.5320    8.8110   15.7950 H   0  0  0  0  0  0  0  0  0  0  0  0
   35.5840    8.1370   13.5570 H   0  0  0  0  0  0  0  0  0  0  0  0
   37.0900    9.1510   13.3870 H   0  0  0  0  0  0  0  0  0  0  0  0
   36.7030    4.8960   14.5940 H   0  0  0  0  0  0  0  0  0  0  0  0
   34.9920    5.2310   14.2470 H   0  0  0  0  0  0  0  0  0  0  0  0
   33.6850    3.6670   12.7020 H   0  0  0  0  0  0  0  0  0  0  0  0
   33.4060    1.3080   12.0110 H   0  0  0  0  0  0  0  0  0  0  0  0
   35.2700   -0.3190   12.2990 H   0  0  0  0  0  0  0  0  0  0  0  0
   37.4250    0.4270   13.3040 H   0  0  0  0  0  0  0  0  0  0  0  0
   37.7290    2.7850   14.0060 H   0  0  0  0  0  0  0  0  0  0  0  0
   39.1930    6.0820   12.5840 H   0  0  0  0  0  0  0  0  0  0  0  0
   39.2890    7.8980   12.7770 H   0  0  0  0  0  0  0  0  0  0  0  0
   40.2520    6.8320   14.7440 H   0  0  0  0  0  0  0  0  0  0  0  0
   38.8100    5.7970   15.0010 H   0  0  0  0  0  0  0  0  0  0  0  0
   40.1710   11.4840   15.0570 H   0  0  0  0  0  0  0  0  0  0  0  0
  1  2  2  0  0  0  0
  2  3  1  0  0  0  0
  2  4  1  0  0  0  0
  4  5  1  0  0  0  0
  4 38  1  0  0  0  0
  4 39  1  0  0  0  0
  5  6  1  0  0  0  0
  6 34  2  0  0  0  0
  6  7  1  0  0  0  0
  7  8  1  0  0  0  0
  7  9  2  0  0  0  0
  9 10  1  0  0  0  0
  9 33  1  0  0  0  0
 10 32  2  0  0  0  0
 10 11  1  0  0  0  0
 11 12  2  0  0  0  0
 11 40  1  0  0  0  0
 12 13  1  0  0  0  0
 12 41  1  0  0  0  0
 13 14  2  0  0  0  0
 13 42  1  0  0  0  0
 14 15  1  0  0  0  0
 14 32  1  0  0  0  0
 15 16  1  0  0  0  0
 15 43  1  0  0  0  0
 16 31  1  0  0  0  0
 16 17  1  0  0  0  0
 16 44  1  0  0  0  0
 17 18  1  0  0  0  0
 17 45  1  0  0  0  0
 17 46  1  0  0  0  0
 18 19  1  0  0  0  0
 18 47  1  0  0  0  0
 18 48  1  0  0  0  0
 19 20  1  0  0  0  0
 19 30  1  0  0  0  0
 20 21  2  0  0  0  0
 20 22  2  0  0  0  0
 20 23  1  0  0  0  0
 23 24  1  0  0  0  0
 23 49  1  0  0  0  0
 23 50  1  0  0  0  0
 24 29  2  0  0  0  0
 24 25  1  0  0  0  0
 25 26  2  0  0  0  0
 25 51  1  0  0  0  0
 26 27  1  0  0  0  0
 26 52  1  0  0  0  0
 27 28  2  0  0  0  0
 27 53  1  0  0  0  0
 28 29  1  0  0  0  0
 28 54  1  0  0  0  0
 29 55  1  0  0  0  0
 30 31  1  0  0  0  0
 30 56  1  0  0  0  0
 30 57  1  0  0  0  0
 31 58  1  0  0  0  0
 31 59  1  0  0  0  0
 32 60  1  0  0  0  0
 33 34  1  0  0  0  0
 34 35  1  0  0  0  0
 35 36  2  0  0  0  0
 35 37  1  0  0  0  0
M  CHG  2   3  -1  37  -1
M  END
$$$$
