p38a_3fly
 OpenBabel02232411163D
Structure written by MMmdl.
 41 43  0  0  0  0  0  0  0  0999 V2000
   34.6340   39.3850   21.4800 C   0  0  0  0  0  0  0  0  0  0  0  0
   34.3050   37.2040   22.4920 C   0  0  0  0  0  0  0  0  0  0  0  0
   34.3720   40.0000   22.6410 N   0  0  0  0  0  0  0  0  0  0  0  0
   34.6530   37.9710   21.3400 C   0  0  0  0  0  0  0  0  0  0  0  0
   35.0210   37.3100   20.1190 C   0  0  0  0  0  0  0  0  0  0  0  0
   35.0000   35.9570   20.0800 C   0  0  0  0  0  0  0  0  0  0  0  0
   34.5390   35.0940   21.1980 C   0  0  0  0  0  0  0  0  0  0  0  0
   34.1040   39.1780   23.7580 C   0  0  0  0  0  0  0  0  0  0  0  0
   33.4630   39.1160   26.2080 C   0  0  0  0  0  0  0  0  0  0  0  0
   34.3050   39.6160   27.3900 C   0  0  0  0  0  0  0  0  0  0  0  0
   31.9730   39.4440   26.3890 C   0  0  0  0  0  0  0  0  0  0  0  0
   36.1080   35.7580   18.0000 C   0  0  0  0  0  0  0  0  0  0  0  0
   35.5180   35.9320   16.7450 C   0  0  0  0  0  0  0  0  0  0  0  0
   36.3000   36.4070   15.6870 C   0  0  0  0  0  0  0  0  0  0  0  0
   37.6450   36.7020   15.9170 C   0  0  0  0  0  0  0  0  0  0  0  0
   38.2730   36.5320   17.1590 C   0  0  0  0  0  0  0  0  0  0  0  0
   37.4700   36.0720   18.1990 C   0  0  0  0  0  0  0  0  0  0  0  0
   38.3600   37.2090   14.9150 F   0  0  0  0  0  0  0  0  0  0  0  0
   37.9830   35.9270   19.4140 F   0  0  0  0  0  0  0  0  0  0  0  0
   35.3630   35.1380   19.0100 O   0  0  0  0  0  0  0  0  0  0  0  0
   34.4020   33.8910   21.1500 O   0  0  0  0  0  0  0  0  0  0  0  0
   34.2420   35.8030   22.4140 N   0  0  0  0  0  0  0  0  0  0  0  0
   33.8570   35.0280   23.6260 C   0  0  0  0  0  0  0  0  0  0  0  0
   34.0240   37.7990   23.6960 N   0  0  0  0  0  0  0  0  0  0  0  0
   33.9730   39.8000   24.9740 N   0  0  0  0  0  0  0  0  0  0  0  0
   34.8330   40.0260   20.6040 H   0  0  0  0  0  0  0  0  0  0  0  0
   35.3190   37.9240   19.2670 H   0  0  0  0  0  0  0  0  0  0  0  0
   33.5930   38.0020   26.1060 H   0  0  0  0  0  0  0  0  0  0  0  0
   35.3820   39.3780   27.2320 H   0  0  0  0  0  0  0  0  0  0  0  0
   34.1980   40.7180   27.5200 H   0  0  0  0  0  0  0  0  0  0  0  0
   33.9640   39.1160   28.3260 H   0  0  0  0  0  0  0  0  0  0  0  0
   31.3710   39.0320   25.5500 H   0  0  0  0  0  0  0  0  0  0  0  0
   31.6070   38.9920   27.3390 H   0  0  0  0  0  0  0  0  0  0  0  0
   31.8220   40.5440   26.4360 H   0  0  0  0  0  0  0  0  0  0  0  0
   34.4560   35.7180   16.5850 H   0  0  0  0  0  0  0  0  0  0  0  0
   35.8460   36.5590   14.7050 H   0  0  0  0  0  0  0  0  0  0  0  0
   39.3260   36.7850   17.3100 H   0  0  0  0  0  0  0  0  0  0  0  0
   33.9140   33.9280   23.4190 H   0  0  0  0  0  0  0  0  0  0  0  0
   34.5460   35.2760   24.4790 H   0  0  0  0  0  0  0  0  0  0  0  0
   32.8080   35.2900   23.9320 H   0  0  0  0  0  0  0  0  0  0  0  0
   33.9340   40.8380   25.0190 H   0  0  0  0  0  0  0  0  0  0  0  0
  1  3  2  0  0  0  0
  1  4  1  0  0  0  0
  1 26  1  0  0  0  0
  2  4  2  0  0  0  0
  2 22  1  0  0  0  0
  2 24  1  0  0  0  0
  3  8  1  0  0  0  0
  4  5  1  0  0  0  0
  5  6  2  0  0  0  0
  5 27  1  0  0  0  0
  6  7  1  0  0  0  0
  6 20  1  0  0  0  0
  7 21  2  0  0  0  0
  7 22  1  0  0  0  0
  8 24  2  0  0  0  0
  8 25  1  0  0  0  0
  9 10  1  0  0  0  0
  9 11  1  0  0  0  0
  9 25  1  0  0  0  0
  9 28  1  0  0  0  0
 10 29  1  0  0  0  0
 10 30  1  0  0  0  0
 10 31  1  0  0  0  0
 11 32  1  0  0  0  0
 11 33  1  0  0  0  0
 11 34  1  0  0  0  0
 12 13  2  0  0  0  0
 12 17  1  0  0  0  0
 12 20  1  0  0  0  0
 13 14  1  0  0  0  0
 13 35  1  0  0  0  0
 14 15  2  0  0  0  0
 14 36  1  0  0  0  0
 15 16  1  0  0  0  0
 15 18  1  0  0  0  0
 16 17  2  0  0  0  0
 16 37  1  0  0  0  0
 17 19  1  0  0  0  0
 22 23  1  0  0  0  0
 23 38  1  0  0  0  0
 23 39  1  0  0  0  0
 23 40  1  0  0  0  0
 25 41  1  0  0  0  0
M  END
$$$$
