p38a_2x
 OpenBabel02232411163D
Structure written by MMmdl.
 43 46  0  0  1  0  0  0  0  0999 V2000
   36.3730   36.0350   15.8170 C   0  0  0  0  0  0  0  0  0  0  0  0
   34.5330   34.9870   21.3560 C   0  0  0  0  0  0  0  0  0  0  0  0
   35.6820   35.5680   16.9310 C   0  0  0  0  0  0  0  0  0  0  0  0
   34.0580   39.0370   23.9520 C   0  0  0  0  0  0  0  0  0  0  0  0
   34.7460   37.8510   21.5610 C   0  0  0  0  0  0  0  0  0  0  0  0
   35.1760   37.1970   20.3530 C   0  0  0  0  0  0  0  0  0  0  0  0
   37.6650   36.5260   16.0440 C   0  0  0  0  0  0  0  0  0  0  0  0
   38.2780   36.5290   17.3000 C   0  0  0  0  0  0  0  0  0  0  0  0
   37.5490   36.0900   18.4110 C   0  0  0  0  0  0  0  0  0  0  0  0
   34.3300   37.0750   22.6830 C   0  0  0  0  0  0  0  0  0  0  0  0
   34.7350   39.2630   21.7190 C   0  0  0  0  0  0  0  0  0  0  0  0
   35.1030   35.8490   20.2840 C   0  0  0  0  0  0  0  0  0  0  0  0
   36.2500   35.6120   18.2210 C   0  0  0  0  0  0  0  0  0  0  0  0
   33.8310   34.8900   23.7800 C   0  0  0  0  0  0  0  0  0  0  0  0
   34.4660   35.0540   16.8040 F   0  0  0  0  0  0  0  0  0  0  0  0
   35.4830   35.0190   19.2310 O   0  0  0  0  0  0  0  0  0  0  0  0
   34.4050   39.8680   22.8710 N   0  0  0  0  0  0  0  0  0  0  0  0
   34.3080   33.8010   21.2560 O   0  0  0  0  0  0  0  0  0  0  0  0
   34.2410   35.6770   22.5830 N   0  0  0  0  0  0  0  0  0  0  0  0
   34.0020   37.6600   23.8810 N   0  0  0  0  0  0  0  0  0  0  0  0
   33.6840   39.6500   25.1350 N   0  0  0  0  0  0  0  0  0  0  0  0
   35.9230   36.0410   14.8210 H   0  0  0  0  0  0  0  0  0  0  0  0
   35.5610   37.8190   19.5410 H   0  0  0  0  0  0  0  0  0  0  0  0
   39.3000   36.8980   17.4210 H   0  0  0  0  0  0  0  0  0  0  0  0
   37.9920   36.1470   19.4080 H   0  0  0  0  0  0  0  0  0  0  0  0
   35.0080   39.9110   20.8690 H   0  0  0  0  0  0  0  0  0  0  0  0
   34.5110   35.1280   24.6440 H   0  0  0  0  0  0  0  0  0  0  0  0
   32.7790   35.1540   24.0740 H   0  0  0  0  0  0  0  0  0  0  0  0
   33.8910   33.7920   23.5620 H   0  0  0  0  0  0  0  0  0  0  0  0
   33.8450   40.6730   25.2380 H   0  0  0  0  0  0  0  0  0  0  0  0
   38.3230   37.0480   15.0120 F   0  0  0  0  0  0  0  0  0  0  0  0
   33.6640   39.4040   28.7360 O   0  0  0  0  0  0  0  0  0  0  0  0
   35.0110   38.9730   28.3870 C   0  0  0  0  0  0  0  0  0  0  0  0
   34.9520   38.4180   26.9580 C   0  0  0  0  0  0  0  0  0  0  0  0
   33.5770   38.8620   26.3930 C   0  0  1  0  0  0  0  0  0  0  0  0
   32.9480   39.7270   27.5200 C   0  0  0  0  0  0  0  0  0  0  0  0
   35.2560   38.2030   29.1490 H   0  0  0  0  0  0  0  0  0  0  0  0
   35.6780   39.8600   28.4630 H   0  0  0  0  0  0  0  0  0  0  0  0
   35.7940   38.8120   26.3470 H   0  0  0  0  0  0  0  0  0  0  0  0
   35.0200   37.3040   26.9540 H   0  0  0  0  0  0  0  0  0  0  0  0
   32.9340   37.9620   26.1850 H   0  0  0  0  0  0  0  0  0  0  0  0
   31.8940   39.4480   27.7310 H   0  0  0  0  0  0  0  0  0  0  0  0
   33.0610   40.8190   27.3380 H   0  0  0  0  0  0  0  0  0  0  0  0
  1  3  2  0  0  0  0
  1  7  1  0  0  0  0
  1 22  1  0  0  0  0
  2 12  1  0  0  0  0
  2 18  2  0  0  0  0
  2 19  1  0  0  0  0
  3 13  1  0  0  0  0
  3 15  1  0  0  0  0
  4 17  2  0  0  0  0
  4 20  1  0  0  0  0
  4 21  1  0  0  0  0
  5  6  1  0  0  0  0
  5 10  1  0  0  0  0
  5 11  2  0  0  0  0
  6 12  2  0  0  0  0
  6 23  1  0  0  0  0
  7  8  2  0  0  0  0
  7 31  1  0  0  0  0
  8  9  1  0  0  0  0
  8 24  1  0  0  0  0
  9 13  2  0  0  0  0
  9 25  1  0  0  0  0
 10 19  1  0  0  0  0
 10 20  2  0  0  0  0
 11 17  1  0  0  0  0
 11 26  1  0  0  0  0
 12 16  1  0  0  0  0
 13 16  1  0  0  0  0
 14 19  1  0  0  0  0
 14 27  1  0  0  0  0
 14 28  1  0  0  0  0
 14 29  1  0  0  0  0
 21 30  1  0  0  0  0
 21 35  1  0  0  0  0
 32 33  1  0  0  0  0
 32 36  1  0  0  0  0
 33 34  1  0  0  0  0
 33 37  1  0  0  0  0
 33 38  1  0  0  0  0
 34 35  1  0  0  0  0
 34 39  1  0  0  0  0
 34 40  1  0  0  0  0
 35 36  1  0  0  0  0
 35 41  1  1  0  0  0
 36 42  1  0  0  0  0
 36 43  1  0  0  0  0
M  END
$$$$
