2c
                    3D
 Schrodinger Suite 2022-3.
 45 48  0  0  1  0  0  0  0  0999 V2000
   27.1090    9.0600   30.4320 C   0  0  0  0  0  0  0  0  0  0  0  0
   28.4730    9.6340   30.8370 C   0  0  0  0  0  0  0  0  0  0  0  0
   28.4900    8.3700   32.8990 C   0  0  0  0  0  0  0  0  0  0  0  0
   27.1460    7.7080   32.5700 C   0  0  0  0  0  0  0  0  0  0  0  0
   29.2070    8.7350   31.6990 O   0  0  0  0  0  0  0  0  0  0  0  0
   21.0240   12.5070   31.3050 C   0  0  0  0  0  0  0  0  0  0  0  0
   23.8660    8.5880   31.0550 C   0  0  0  0  0  0  0  0  0  0  0  0
   26.3080    8.6610   31.6910 C   0  0  0  0  0  0  0  0  0  0  0  0
   21.3820    9.7220   30.7250 C   0  0  0  0  0  0  0  0  0  0  0  0
   20.0930   10.3250   30.6110 C   0  0  0  0  0  0  0  0  0  0  0  0
   22.4860   10.4910   31.2050 C   0  0  0  0  0  0  0  0  0  0  0  0
   21.6350    8.3690   30.3650 C   0  0  0  0  0  0  0  0  0  0  0  0
   19.9110   11.6460   30.8910 C   0  0  0  0  0  0  0  0  0  0  0  0
   23.4640   12.6300   32.0060 C   0  0  0  0  0  0  0  0  0  0  0  0
   22.8280    7.7890   30.5150 N   0  0  0  0  0  0  0  0  0  0  0  0
   20.9800   13.7040   31.5050 O   0  0  0  0  0  0  0  0  0  0  0  0
   22.3050   11.8400   31.5040 N   0  0  0  0  0  0  0  0  0  0  0  0
   23.7320    9.9260   31.3650 N   0  0  0  0  0  0  0  0  0  0  0  0
   25.0530    7.9460   31.3100 N   0  0  0  0  0  0  0  0  0  0  0  0
   19.2630    9.6960   30.2770 H   0  0  0  0  0  0  0  0  0  0  0  0
   20.8240    7.7640   29.9280 H   0  0  0  0  0  0  0  0  0  0  0  0
   27.2520    8.1620   29.7870 H   0  0  0  0  0  0  0  0  0  0  0  0
   26.5500    9.8300   29.8500 H   0  0  0  0  0  0  0  0  0  0  0  0
   28.3550   10.6140   31.3540 H   0  0  0  0  0  0  0  0  0  0  0  0
   29.1550    9.7170   29.9610 H   0  0  0  0  0  0  0  0  0  0  0  0
   29.1870    7.6480   33.3830 H   0  0  0  0  0  0  0  0  0  0  0  0
   28.3440    9.2800   33.5260 H   0  0  0  0  0  0  0  0  0  0  0  0
   26.6010    7.4790   33.5170 H   0  0  0  0  0  0  0  0  0  0  0  0
   27.3220    6.7460   32.0290 H   0  0  0  0  0  0  0  0  0  0  0  0
   26.0410    9.5810   32.2810 H   0  0  0  0  0  0  0  0  0  0  0  0
   24.2510   12.7070   31.2080 H   0  0  0  0  0  0  0  0  0  0  0  0
   23.9170   12.1230   32.9000 H   0  0  0  0  0  0  0  0  0  0  0  0
   23.1300   13.6600   32.2930 H   0  0  0  0  0  0  0  0  0  0  0  0
   25.1870    6.9760   30.9530 H   0  0  0  0  0  0  0  0  0  0  0  0
   15.9730   13.1890   30.2110 C   0  0  0  0  0  0  0  0  0  0  0  0
   16.1680   12.1940   31.1700 C   0  0  0  0  0  0  0  0  0  0  0  0
   17.4670   11.7460   31.4190 C   0  0  0  0  0  0  0  0  0  0  0  0
   18.5780   12.2500   30.7230 C   0  0  0  0  0  0  0  0  0  0  0  0
   18.3590   13.2760   29.7900 C   0  0  0  0  0  0  0  0  0  0  0  0
   17.0660   13.7340   29.5290 C   0  0  0  0  0  0  0  0  0  0  0  0
   14.9660   13.5230   29.9770 H   0  0  0  0  0  0  0  0  0  0  0  0
   15.3200   11.7390   31.6890 H   0  0  0  0  0  0  0  0  0  0  0  0
   17.6670   10.5010   32.5940 Cl  0  0  0  0  0  0  0  0  0  0  0  0
   19.1980   13.7010   29.2330 H   0  0  0  0  0  0  0  0  0  0  0  0
   16.9050   14.4910   28.7530 H   0  0  0  0  0  0  0  0  0  0  0  0
  1  2  1  0  0  0  0
  1  8  1  0  0  0  0
  1 22  1  0  0  0  0
  1 23  1  0  0  0  0
  2  5  1  0  0  0  0
  2 24  1  0  0  0  0
  2 25  1  0  0  0  0
  3  4  1  0  0  0  0
  3  5  1  0  0  0  0
  3 26  1  0  0  0  0
  3 27  1  0  0  0  0
  4  8  1  0  0  0  0
  4 28  1  0  0  0  0
  4 29  1  0  0  0  0
  6 13  1  0  0  0  0
  6 16  2  0  0  0  0
  6 17  1  0  0  0  0
  7 15  1  0  0  0  0
  7 18  2  0  0  0  0
  7 19  1  0  0  0  0
  8 19  1  0  0  0  0
  8 30  1  0  0  0  0
  9 10  1  0  0  0  0
  9 11  2  0  0  0  0
  9 12  1  0  0  0  0
 10 13  2  0  0  0  0
 10 20  1  0  0  0  0
 11 17  1  0  0  0  0
 11 18  1  0  0  0  0
 12 15  2  0  0  0  0
 12 21  1  0  0  0  0
 13 38  1  0  0  0  0
 14 17  1  0  0  0  0
 14 31  1  0  0  0  0
 14 32  1  0  0  0  0
 14 33  1  0  0  0  0
 19 34  1  0  0  0  0
 35 36  2  0  0  0  0
 35 40  1  0  0  0  0
 35 41  1  0  0  0  0
 36 37  1  0  0  0  0
 36 42  1  0  0  0  0
 37 38  2  0  0  0  0
 37 43  1  0  0  0  0
 38 39  1  0  0  0  0
 39 40  2  0  0  0  0
 39 44  1  0  0  0  0
 40 45  1  0  0  0  0
M  END
$$$$
