7a
                    3D
 Schrodinger Suite 2022-3.
 58 60  0  0  1  0  0  0  0  0999 V2000
   16.1860  -15.9570   23.0220 N   0  3  0  0  0  0  0  0  0  0  0  0
   17.5210  -15.1930   23.0770 C   0  0  1  0  0  0  0  0  0  0  0  0
   17.2650  -13.7670   22.5170 C   0  0  0  0  0  0  0  0  0  0  0  0
   16.2770  -13.1250   22.8720 O   0  0  0  0  0  0  0  0  0  0  0  0
   18.0220  -15.1510   24.5340 C   0  0  0  0  0  0  0  0  0  0  0  0
   19.4620  -14.7050   24.6340 C   0  0  0  0  0  0  0  0  0  0  0  0
   20.4900  -15.5040   24.1070 C   0  0  0  0  0  0  0  0  0  0  0  0
   19.7870  -13.5160   25.2960 C   0  0  0  0  0  0  0  0  0  0  0  0
   21.8210  -15.1000   24.2270 C   0  0  0  0  0  0  0  0  0  0  0  0
   21.1210  -13.1040   25.4010 C   0  0  0  0  0  0  0  0  0  0  0  0
   22.1410  -13.8960   24.8690 C   0  0  0  0  0  0  0  0  0  0  0  0
   18.1620  -13.2490   21.6240 N   0  0  0  0  0  0  0  0  0  0  0  0
   17.9550  -11.9000   21.0080 C   0  0  2  0  0  0  0  0  0  0  0  0
   16.5240  -11.7830   20.4120 C   0  0  0  0  0  0  0  0  0  0  0  0
   16.0390  -12.6440   19.6910 O   0  0  0  0  0  0  0  0  0  0  0  0
   19.0320  -11.8000   19.9080 C   0  0  0  0  0  0  0  0  0  0  0  0
   20.0800  -12.8900   20.2030 C   0  0  0  0  0  0  0  0  0  0  0  0
   19.3830  -13.9330   21.0940 C   0  0  0  0  0  0  0  0  0  0  0  0
   15.8940  -10.5690   20.6420 N   0  0  0  0  0  0  0  0  0  0  0  0
   14.4690  -10.3510   20.2620 C   0  0  0  0  0  0  0  0  0  0  0  0
   13.5250  -10.3370   21.4430 C   0  0  0  0  0  0  0  0  0  0  0  0
   13.5310   -9.2000   22.2680 C   0  0  0  0  0  0  0  0  0  0  0  0
   12.6370   -9.0690   23.3360 C   0  0  0  0  0  0  0  0  0  0  0  0
   11.6950  -10.0910   23.5540 C   0  0  0  0  0  0  0  0  0  0  0  0
   11.6920  -11.2250   22.7490 C   0  0  0  0  0  0  0  0  0  0  0  0
   12.6170  -11.3800   21.6980 C   0  0  0  0  0  0  0  0  0  0  0  0
   14.2540   -8.4130   22.0680 H   0  0  0  0  0  0  0  0  0  0  0  0
   12.6900   -7.8870   24.2510 C   0  0  0  0  0  0  0  0  0  0  0  0
   10.9590  -10.0010   24.3570 H   0  0  0  0  0  0  0  0  0  0  0  0
   10.9590  -12.0150   22.9420 H   0  0  0  0  0  0  0  0  0  0  0  0
   12.5990  -12.6480   20.9050 C   0  0  0  0  0  0  0  0  0  0  0  0
   19.0020  -12.9180   25.7500 H   0  0  0  0  0  0  0  0  0  0  0  0
   21.3410  -12.1590   25.9040 H   0  0  0  0  0  0  0  0  0  0  0  0
   22.6090  -15.7380   23.8160 H   0  0  0  0  0  0  0  0  0  0  0  0
   23.1870  -13.5900   24.9550 H   0  0  0  0  0  0  0  0  0  0  0  0
   20.2490  -16.4460   23.6090 H   0  0  0  0  0  0  0  0  0  0  0  0
   15.9020  -16.1230   22.0150 H   0  0  0  0  0  0  0  0  0  0  0  0
   15.4200  -15.3990   23.5250 H   0  0  0  0  0  0  0  0  0  0  0  0
   16.3070  -16.9060   23.4830 H   0  0  0  0  0  0  0  0  0  0  0  0
   18.2450  -15.7900   22.4500 H   0  0  0  0  0  0  0  0  0  0  0  0
   17.9620  -16.1900   24.9680 H   0  0  0  0  0  0  0  0  0  0  0  0
   17.3610  -14.4840   25.1430 H   0  0  0  0  0  0  0  0  0  0  0  0
   18.1310  -11.1280   21.8050 H   0  0  0  0  0  0  0  0  0  0  0  0
   19.5100  -10.8020   19.9410 H   0  0  0  0  0  0  0  0  0  0  0  0
   18.5910  -11.9830   18.8990 H   0  0  0  0  0  0  0  0  0  0  0  0
   20.9600  -12.4630   20.7380 H   0  0  0  0  0  0  0  0  0  0  0  0
   20.4390  -13.3700   19.2610 H   0  0  0  0  0  0  0  0  0  0  0  0
   19.0880  -14.8330   20.4950 H   0  0  0  0  0  0  0  0  0  0  0  0
   20.0460  -14.2420   21.9420 H   0  0  0  0  0  0  0  0  0  0  0  0
   16.2770   -9.9110   21.3430 H   0  0  0  0  0  0  0  0  0  0  0  0
   14.1730  -11.1350   19.5130 H   0  0  0  0  0  0  0  0  0  0  0  0
   14.4210   -9.3440   19.7600 H   0  0  0  0  0  0  0  0  0  0  0  0
   11.8340  -13.3620   21.3000 H   0  0  0  0  0  0  0  0  0  0  0  0
   12.3680  -12.4530   19.8340 H   0  0  0  0  0  0  0  0  0  0  0  0
   13.5900  -13.1580   20.9740 H   0  0  0  0  0  0  0  0  0  0  0  0
   12.9810   -8.2290   25.2710 H   0  0  0  0  0  0  0  0  0  0  0  0
   13.4470   -7.1460   23.9260 H   0  0  0  0  0  0  0  0  0  0  0  0
   11.6980   -7.3850   24.3230 H   0  0  0  0  0  0  0  0  0  0  0  0
  1  2  1  0  0  0  0
  1 37  1  0  0  0  0
  1 38  1  0  0  0  0
  1 39  1  0  0  0  0
  2  3  1  0  0  0  0
  2  5  1  0  0  0  0
  2 40  1  0  0  0  0
  3  4  2  0  0  0  0
  3 12  1  0  0  0  0
  5  6  1  0  0  0  0
  5 41  1  0  0  0  0
  5 42  1  0  0  0  0
  6  7  2  0  0  0  0
  6  8  1  0  0  0  0
  7  9  1  0  0  0  0
  7 36  1  0  0  0  0
  8 10  2  0  0  0  0
  8 32  1  0  0  0  0
  9 11  2  0  0  0  0
  9 34  1  0  0  0  0
 10 11  1  0  0  0  0
 10 33  1  0  0  0  0
 11 35  1  0  0  0  0
 12 13  1  0  0  0  0
 12 18  1  0  0  0  0
 13 14  1  0  0  0  0
 13 16  1  0  0  0  0
 13 43  1  0  0  0  0
 14 15  2  0  0  0  0
 14 19  1  0  0  0  0
 16 17  1  0  0  0  0
 16 44  1  0  0  0  0
 16 45  1  0  0  0  0
 17 18  1  0  0  0  0
 17 46  1  0  0  0  0
 17 47  1  0  0  0  0
 18 48  1  0  0  0  0
 18 49  1  0  0  0  0
 19 20  1  0  0  0  0
 19 50  1  0  0  0  0
 20 21  1  0  0  0  0
 20 51  1  0  0  0  0
 20 52  1  0  0  0  0
 21 22  2  0  0  0  0
 21 26  1  0  0  0  0
 22 23  1  0  0  0  0
 22 27  1  0  0  0  0
 23 24  2  0  0  0  0
 23 28  1  0  0  0  0
 24 25  1  0  0  0  0
 24 29  1  0  0  0  0
 25 26  2  0  0  0  0
 25 30  1  0  0  0  0
 26 31  1  0  0  0  0
 28 56  1  0  0  0  0
 28 57  1  0  0  0  0
 28 58  1  0  0  0  0
 31 53  1  0  0  0  0
 31 54  1  0  0  0  0
 31 55  1  0  0  0  0
M  CHG  1   1   1
M  END
$$$$
