p38a_2u
 OpenBabel02232411163D
Structure written by MMmdl.
 64 68  0  0  0  0  0  0  0  0999 V2000
   38.2900   36.5710   17.1090 C   0  0  0  0  0  0  0  0  0  0  0  0
   34.5670   35.1050   21.1540 C   0  0  0  0  0  0  0  0  0  0  0  0
   37.4920   36.1130   18.1550 C   0  0  0  0  0  0  0  0  0  0  0  0
   34.0130   39.1480   23.7560 C   0  0  0  0  0  0  0  0  0  0  0  0
   34.6400   37.9630   21.3520 C   0  0  0  0  0  0  0  0  0  0  0  0
   35.0270   37.3380   20.1180 C   0  0  0  0  0  0  0  0  0  0  0  0
   37.6540   36.7490   15.8730 C   0  0  0  0  0  0  0  0  0  0  0  0
   36.3030   36.4710   15.6530 C   0  0  0  0  0  0  0  0  0  0  0  0
   35.5260   35.9990   16.7160 C   0  0  0  0  0  0  0  0  0  0  0  0
   34.3070   37.1750   22.4960 C   0  0  0  0  0  0  0  0  0  0  0  0
   34.5930   39.3770   21.4990 C   0  0  0  0  0  0  0  0  0  0  0  0
   35.0250   35.9870   20.0520 C   0  0  0  0  0  0  0  0  0  0  0  0
   36.1270   35.8140   17.9640 C   0  0  0  0  0  0  0  0  0  0  0  0
   38.0130   35.9580   19.3650 F   0  0  0  0  0  0  0  0  0  0  0  0
   35.3890   35.1830   18.9730 O   0  0  0  0  0  0  0  0  0  0  0  0
   34.2940   39.9840   22.6550 N   0  0  0  0  0  0  0  0  0  0  0  0
   34.4310   33.9030   21.0610 O   0  0  0  0  0  0  0  0  0  0  0  0
   34.2710   35.7680   22.4010 N   0  0  0  0  0  0  0  0  0  0  0  0
   34.0150   37.7670   23.6960 N   0  0  0  0  0  0  0  0  0  0  0  0
   33.6510   39.7600   24.9330 N   0  0  0  0  0  0  0  0  0  0  0  0
   39.3460   36.8150   17.2560 H   0  0  0  0  0  0  0  0  0  0  0  0
   35.3200   37.9750   19.2830 H   0  0  0  0  0  0  0  0  0  0  0  0
   35.8410   36.6320   14.6770 H   0  0  0  0  0  0  0  0  0  0  0  0
   34.4610   35.7940   16.5670 H   0  0  0  0  0  0  0  0  0  0  0  0
   34.8080   40.0240   20.6320 H   0  0  0  0  0  0  0  0  0  0  0  0
   33.7530   40.7900   25.0220 H   0  0  0  0  0  0  0  0  0  0  0  0
   38.3650   37.2480   14.8650 F   0  0  0  0  0  0  0  0  0  0  0  0
   32.4290   39.0400   28.4770 C   0  0  0  0  0  0  0  0  0  0  0  0
   32.4730   39.6980   27.0920 C   0  0  0  0  0  0  0  0  0  0  0  0
   33.5500   39.0140   26.2250 C   0  0  0  0  0  0  0  0  0  0  0  0
   34.9120   39.0220   26.9540 C   0  0  0  0  0  0  0  0  0  0  0  0
   34.7580   38.4000   28.3480 C   0  0  0  0  0  0  0  0  0  0  0  0
   33.7250   39.0530   29.1180 O   0  0  0  0  0  0  0  0  0  0  0  0
   32.0700   37.9880   28.4050 H   0  0  0  0  0  0  0  0  0  0  0  0
   31.8130   39.6420   29.1850 H   0  0  0  0  0  0  0  0  0  0  0  0
   32.7090   40.7840   27.2000 H   0  0  0  0  0  0  0  0  0  0  0  0
   31.4780   39.6020   26.5960 H   0  0  0  0  0  0  0  0  0  0  0  0
   33.2420   37.9530   26.0110 H   0  0  0  0  0  0  0  0  0  0  0  0
   35.6560   38.4320   26.3680 H   0  0  0  0  0  0  0  0  0  0  0  0
   35.2850   40.0710   27.0430 H   0  0  0  0  0  0  0  0  0  0  0  0
   34.5220   37.3140   28.2700 H   0  0  0  0  0  0  0  0  0  0  0  0
   35.6670   38.5810   28.9680 H   0  0  0  0  0  0  0  0  0  0  0  0
   32.0480   34.0140   25.0240 C   0  0  0  0  0  0  0  0  0  0  0  0
   32.4280   35.1150   24.0130 C   0  0  0  0  0  0  0  0  0  0  0  0
   33.8780   34.8820   23.5580 C   0  0  0  0  0  0  0  0  0  0  0  0
   34.8140   35.0160   24.7720 C   0  0  0  0  0  0  0  0  0  0  0  0
   34.4410   33.9360   25.8110 C   0  0  0  0  0  0  0  0  0  0  0  0
   32.0300   33.0220   24.4990 H   0  0  0  0  0  0  0  0  0  0  0  0
   31.0230   34.2550   25.4160 H   0  0  0  0  0  0  0  0  0  0  0  0
   32.3310   36.1150   24.5050 H   0  0  0  0  0  0  0  0  0  0  0  0
   31.7240   35.0750   23.1520 H   0  0  0  0  0  0  0  0  0  0  0  0
   33.9650   33.8200   23.1720 H   0  0  0  0  0  0  0  0  0  0  0  0
   35.8760   34.8780   24.4710 H   0  0  0  0  0  0  0  0  0  0  0  0
   34.7040   36.0240   25.2460 H   0  0  0  0  0  0  0  0  0  0  0  0
   34.7210   32.9290   25.3970 H   0  0  0  0  0  0  0  0  0  0  0  0
   35.0440   34.1420   26.7370 H   0  0  0  0  0  0  0  0  0  0  0  0
   32.9940   33.9780   26.1840 N   0  0  0  0  0  0  0  0  0  0  0  0
   32.4870   33.0790   27.5660 S   0  0  0  0  0  0  0  0  0  0  0  0
   31.2190   32.3950   27.2320 O   0  0  0  0  0  0  0  0  0  0  0  0
   32.3220   34.0060   28.6980 O   0  0  0  0  0  0  0  0  0  0  0  0
   33.7300   31.9190   27.9160 C   0  0  0  0  0  0  0  0  0  0  0  0
   34.6630   32.3870   28.3210 H   0  0  0  0  0  0  0  0  0  0  0  0
   33.3920   31.1860   28.7010 H   0  0  0  0  0  0  0  0  0  0  0  0
   34.0140   31.2980   27.0270 H   0  0  0  0  0  0  0  0  0  0  0  0
  1  3  2  0  0  0  0
  1  7  1  0  0  0  0
  1 21  1  0  0  0  0
  2 12  1  0  0  0  0
  2 17  2  0  0  0  0
  2 18  1  0  0  0  0
  3 13  1  0  0  0  0
  3 14  1  0  0  0  0
  4 16  2  0  0  0  0
  4 19  1  0  0  0  0
  4 20  1  0  0  0  0
  5  6  1  0  0  0  0
  5 10  1  0  0  0  0
  5 11  2  0  0  0  0
  6 12  2  0  0  0  0
  6 22  1  0  0  0  0
  7  8  2  0  0  0  0
  7 27  1  0  0  0  0
  8  9  1  0  0  0  0
  8 23  1  0  0  0  0
  9 13  2  0  0  0  0
  9 24  1  0  0  0  0
 10 18  1  0  0  0  0
 10 19  2  0  0  0  0
 11 16  1  0  0  0  0
 11 25  1  0  0  0  0
 12 15  1  0  0  0  0
 13 15  1  0  0  0  0
 18 45  1  0  0  0  0
 20 26  1  0  0  0  0
 20 30  1  0  0  0  0
 28 29  1  0  0  0  0
 28 33  1  0  0  0  0
 28 34  1  0  0  0  0
 28 35  1  0  0  0  0
 29 30  1  0  0  0  0
 29 36  1  0  0  0  0
 29 37  1  0  0  0  0
 30 31  1  0  0  0  0
 30 38  1  0  0  0  0
 31 32  1  0  0  0  0
 31 39  1  0  0  0  0
 31 40  1  0  0  0  0
 32 33  1  0  0  0  0
 32 41  1  0  0  0  0
 32 42  1  0  0  0  0
 43 44  1  0  0  0  0
 43 48  1  0  0  0  0
 43 49  1  0  0  0  0
 43 57  1  0  0  0  0
 44 45  1  0  0  0  0
 44 50  1  0  0  0  0
 44 51  1  0  0  0  0
 45 46  1  0  0  0  0
 45 52  1  0  0  0  0
 46 47  1  0  0  0  0
 46 53  1  0  0  0  0
 46 54  1  0  0  0  0
 47 55  1  0  0  0  0
 47 56  1  0  0  0  0
 47 57  1  0  0  0  0
 57 58  1  0  0  0  0
 58 59  2  0  0  0  0
 58 60  2  0  0  0  0
 58 61  1  0  0  0  0
 61 62  1  0  0  0  0
 61 63  1  0  0  0  0
 61 64  1  0  0  0  0
M  END
$$$$
