p38a_2aa
 OpenBabel02232411163D
Structure written by MMmdl.
 43 45  0  0  0  0  0  0  0  0999 V2000
   36.3660   36.0710   15.7680 C   0  0  0  0  0  0  0  0  0  0  0  0
   34.5260   35.0120   21.2490 C   0  0  0  0  0  0  0  0  0  0  0  0
   35.7360   35.5810   16.9080 C   0  0  0  0  0  0  0  0  0  0  0  0
   33.8910   39.1050   23.7520 C   0  0  0  0  0  0  0  0  0  0  0  0
   32.7970   39.0430   26.0160 C   0  0  0  0  0  0  0  0  0  0  0  0
   34.7700   37.8760   21.4470 C   0  0  0  0  0  0  0  0  0  0  0  0
   35.2870   37.2020   20.2850 C   0  0  0  0  0  0  0  0  0  0  0  0
   37.6580   36.5850   15.9400 C   0  0  0  0  0  0  0  0  0  0  0  0
   38.3260   36.5950   17.1680 C   0  0  0  0  0  0  0  0  0  0  0  0
   37.6570   36.1320   18.3070 C   0  0  0  0  0  0  0  0  0  0  0  0
   34.2240   37.1200   22.5260 C   0  0  0  0  0  0  0  0  0  0  0  0
   34.7840   39.2870   21.5940 C   0  0  0  0  0  0  0  0  0  0  0  0
   35.1940   35.8550   20.2190 C   0  0  0  0  0  0  0  0  0  0  0  0
   36.3620   35.6260   18.1710 C   0  0  0  0  0  0  0  0  0  0  0  0
   33.5870   34.9480   23.5880 C   0  0  0  0  0  0  0  0  0  0  0  0
   34.5260   35.0450   16.8320 F   0  0  0  0  0  0  0  0  0  0  0  0
   35.6640   35.0090   19.2180 O   0  0  0  0  0  0  0  0  0  0  0  0
   34.3650   39.9140   22.7060 N   0  0  0  0  0  0  0  0  0  0  0  0
   34.3130   33.8240   21.1560 O   0  0  0  0  0  0  0  0  0  0  0  0
   34.1170   35.7250   22.4330 N   0  0  0  0  0  0  0  0  0  0  0  0
   33.7690   37.7310   23.6700 N   0  0  0  0  0  0  0  0  0  0  0  0
   33.5590   39.7310   24.9360 N   0  0  0  0  0  0  0  0  0  0  0  0
   35.8720   36.0760   14.7940 H   0  0  0  0  0  0  0  0  0  0  0  0
   32.9390   39.8970   27.3060 C   0  0  0  0  0  0  0  0  0  0  0  0
   35.7470   37.8100   19.5020 H   0  0  0  0  0  0  0  0  0  0  0  0
   39.3430   36.9870   17.2520 H   0  0  0  0  0  0  0  0  0  0  0  0
   38.1430   36.1940   19.2830 H   0  0  0  0  0  0  0  0  0  0  0  0
   35.1400   39.9210   20.7660 H   0  0  0  0  0  0  0  0  0  0  0  0
   34.0430   35.3210   24.5460 H   0  0  0  0  0  0  0  0  0  0  0  0
   32.4730   35.0590   23.6490 H   0  0  0  0  0  0  0  0  0  0  0  0
   33.8450   33.8620   23.4710 H   0  0  0  0  0  0  0  0  0  0  0  0
   33.5460   40.7710   24.9710 H   0  0  0  0  0  0  0  0  0  0  0  0
   38.2610   37.1230   14.8830 F   0  0  0  0  0  0  0  0  0  0  0  0
   31.3030   38.8640   25.6500 C   0  0  0  0  0  0  0  0  0  0  0  0
   31.0470   37.6090   25.0190 O   0  0  0  0  0  0  0  0  0  0  0  0
   31.7790   37.3870   24.3960 H   0  0  0  0  0  0  0  0  0  0  0  0
   30.6850   38.8110   26.5810 H   0  0  0  0  0  0  0  0  0  0  0  0
   30.9510   39.6800   24.9790 H   0  0  0  0  0  0  0  0  0  0  0  0
   32.1850   39.2910   28.3610 O   0  0  0  0  0  0  0  0  0  0  0  0
   34.0110   39.9970   27.5990 H   0  0  0  0  0  0  0  0  0  0  0  0
   32.4630   40.8990   27.1940 H   0  0  0  0  0  0  0  0  0  0  0  0
   32.6540   38.4730   28.6750 H   0  0  0  0  0  0  0  0  0  0  0  0
   33.2650   38.0330   26.2000 H   0  0  0  0  0  0  0  0  0  0  0  0
  1  3  2  0  0  0  0
  1  8  1  0  0  0  0
  1 23  1  0  0  0  0
  2 13  1  0  0  0  0
  2 19  2  0  0  0  0
  2 20  1  0  0  0  0
  3 14  1  0  0  0  0
  3 16  1  0  0  0  0
  4 18  2  0  0  0  0
  4 21  1  0  0  0  0
  4 22  1  0  0  0  0
  5 22  1  0  0  0  0
  5 24  1  0  0  0  0
  5 34  1  0  0  0  0
  5 43  1  0  0  0  0
  6  7  1  0  0  0  0
  6 11  1  0  0  0  0
  6 12  2  0  0  0  0
  7 13  2  0  0  0  0
  7 25  1  0  0  0  0
  8  9  2  0  0  0  0
  8 33  1  0  0  0  0
  9 10  1  0  0  0  0
  9 26  1  0  0  0  0
 10 14  2  0  0  0  0
 10 27  1  0  0  0  0
 11 20  1  0  0  0  0
 11 21  2  0  0  0  0
 12 18  1  0  0  0  0
 12 28  1  0  0  0  0
 13 17  1  0  0  0  0
 14 17  1  0  0  0  0
 15 20  1  0  0  0  0
 15 29  1  0  0  0  0
 15 30  1  0  0  0  0
 15 31  1  0  0  0  0
 22 32  1  0  0  0  0
 24 39  1  0  0  0  0
 24 40  1  0  0  0  0
 24 41  1  0  0  0  0
 34 35  1  0  0  0  0
 34 37  1  0  0  0  0
 34 38  1  0  0  0  0
 35 36  1  0  0  0  0
 39 42  1  0  0  0  0
M  END
$$$$
