20
 OpenBabel02232411153D
Structure written by MMmdl.
 49 52  0  0  0  0  0  0  0  0999 V2000
    1.8720   28.8210    6.8570 C   0  0  0  0  0  0  0  0  0  0  0  0
   -1.6050   31.4440    7.9780 C   0  0  0  0  0  0  0  0  0  0  0  0
   -0.1640   25.9520    8.9210 C   0  0  0  0  0  0  0  0  0  0  0  0
   -0.9290   25.2600   10.0570 C   0  0  0  0  0  0  0  0  0  0  0  0
   -0.7300   23.7370    9.8780 C   0  0  0  0  0  0  0  0  0  0  0  0
   -1.3470   22.9470   11.0410 C   0  0  0  0  0  0  0  0  0  0  0  0
   -0.8100   23.4280   12.3980 C   0  0  0  0  0  0  0  0  0  0  0  0
   -1.0440   24.9360   12.5830 C   0  0  0  0  0  0  0  0  0  0  0  0
   -0.4240   25.7410   11.4310 C   0  0  0  0  0  0  0  0  0  0  0  0
    5.4170   25.6030    5.7590 C   0  0  0  0  0  0  0  0  0  0  0  0
    5.3020   24.8630    6.9460 C   0  0  0  0  0  0  0  0  0  0  0  0
    4.4440   25.3040    7.9550 C   0  0  0  0  0  0  0  0  0  0  0  0
    3.6990   26.4770    7.8060 C   0  0  0  0  0  0  0  0  0  0  0  0
    1.1440   27.8730    7.5720 N   0  0  0  0  0  0  0  0  0  0  0  0
   -0.0560   28.2110    8.1070 C   0  0  0  0  0  0  0  0  0  0  0  0
   -0.7530   27.3130    8.8220 O   0  0  0  0  0  0  0  0  0  0  0  0
   -0.5730   29.5220    7.9280 C   0  0  0  0  0  0  0  0  0  0  0  0
   -1.7170   30.1800    8.3950 N   0  0  0  0  0  0  0  0  0  0  0  0
   -0.3900   31.6680    7.2360 N   0  0  0  0  0  0  0  0  0  0  0  0
    0.2660   30.4420    7.1750 C   0  0  0  0  0  0  0  0  0  0  0  0
    1.4640   30.1210    6.5900 N   0  0  0  0  0  0  0  0  0  0  0  0
    3.1150   28.4430    6.3720 N   0  0  0  0  0  0  0  0  0  0  0  0
    3.8060   27.2070    6.6130 C   0  0  0  0  0  0  0  0  0  0  0  0
    4.6800   26.7770    5.5920 C   0  0  0  0  0  0  0  0  0  0  0  0
   -2.3020   32.2540    8.1660 H   0  0  0  0  0  0  0  0  0  0  0  0
    0.9210   26.0370    9.1560 H   0  0  0  0  0  0  0  0  0  0  0  0
   -0.3460   25.4780    7.9350 H   0  0  0  0  0  0  0  0  0  0  0  0
   -2.0180   25.4940    9.9850 H   0  0  0  0  0  0  0  0  0  0  0  0
   -1.2060   23.4130    8.9260 H   0  0  0  0  0  0  0  0  0  0  0  0
    0.3630   23.5090    9.8320 H   0  0  0  0  0  0  0  0  0  0  0  0
   -2.4500   23.0790   11.0280 H   0  0  0  0  0  0  0  0  0  0  0  0
   -1.1140   21.8630   10.9190 H   0  0  0  0  0  0  0  0  0  0  0  0
   -1.3190   22.8700   13.2170 H   0  0  0  0  0  0  0  0  0  0  0  0
    0.2840   23.2190   12.4490 H   0  0  0  0  0  0  0  0  0  0  0  0
   -2.1380   25.1370   12.6460 H   0  0  0  0  0  0  0  0  0  0  0  0
   -0.5760   25.2620   13.5400 H   0  0  0  0  0  0  0  0  0  0  0  0
    0.6860   25.6300   11.4860 H   0  0  0  0  0  0  0  0  0  0  0  0
   -0.6750   26.8180   11.5610 H   0  0  0  0  0  0  0  0  0  0  0  0
    5.8810   23.9490    7.0740 H   0  0  0  0  0  0  0  0  0  0  0  0
    4.3490   24.7290    8.8800 H   0  0  0  0  0  0  0  0  0  0  0  0
    3.0480   26.8020    8.6200 H   0  0  0  0  0  0  0  0  0  0  0  0
   -0.1220   32.5470    6.7700 H   0  0  0  0  0  0  0  0  0  0  0  0
    3.6200   29.1000    5.7310 H   0  0  0  0  0  0  0  0  0  0  0  0
    4.7880   27.3680    4.6810 H   0  0  0  0  0  0  0  0  0  0  0  0
    6.3480   25.1380    4.6660 C   0  0  0  0  0  0  0  0  0  0  0  0
    6.2370   25.7350    3.7280 H   0  0  0  0  0  0  0  0  0  0  0  0
    7.4110   25.1610    5.0140 H   0  0  0  0  0  0  0  0  0  0  0  0
    5.9720   23.7680    4.3820 O   0  0  0  0  0  0  0  0  0  0  0  0
    6.6220   23.4010    3.7230 H   0  0  0  0  0  0  0  0  0  0  0  0
  1 14  2  0  0  0  0
  1 21  1  0  0  0  0
  1 22  1  0  0  0  0
  2 18  2  0  0  0  0
  2 19  1  0  0  0  0
  2 25  1  0  0  0  0
  3  4  1  0  0  0  0
  3 16  1  0  0  0  0
  3 26  1  0  0  0  0
  3 27  1  0  0  0  0
  4  5  1  0  0  0  0
  4  9  1  0  0  0  0
  4 28  1  0  0  0  0
  5  6  1  0  0  0  0
  5 29  1  0  0  0  0
  5 30  1  0  0  0  0
  6  7  1  0  0  0  0
  6 31  1  0  0  0  0
  6 32  1  0  0  0  0
  7  8  1  0  0  0  0
  7 33  1  0  0  0  0
  7 34  1  0  0  0  0
  8  9  1  0  0  0  0
  8 35  1  0  0  0  0
  8 36  1  0  0  0  0
  9 37  1  0  0  0  0
  9 38  1  0  0  0  0
 10 11  2  0  0  0  0
 10 24  1  0  0  0  0
 10 45  1  0  0  0  0
 11 12  1  0  0  0  0
 11 39  1  0  0  0  0
 12 13  2  0  0  0  0
 12 40  1  0  0  0  0
 13 23  1  0  0  0  0
 13 41  1  0  0  0  0
 14 15  1  0  0  0  0
 15 16  1  0  0  0  0
 15 17  2  0  0  0  0
 17 18  1  0  0  0  0
 17 20  1  0  0  0  0
 19 20  1  0  0  0  0
 19 42  1  0  0  0  0
 20 21  2  0  0  0  0
 22 23  1  0  0  0  0
 22 43  1  0  0  0  0
 23 24  2  0  0  0  0
 24 44  1  0  0  0  0
 45 46  1  0  0  0  0
 45 47  1  0  0  0  0
 45 48  1  0  0  0  0
 48 49  1  0  0  0  0
M  END
$$$$
