p38a_2gg
 OpenBabel02232411163D
Structure written by MMmdl.
 48 51  0  0  0  0  0  0  0  0999 V2000
   36.3600   36.0090   15.8410 C   0  0  0  0  0  0  0  0  0  0  0  0
   34.5360   35.0510   21.4060 C   0  0  0  0  0  0  0  0  0  0  0  0
   35.6710   35.5490   16.9590 C   0  0  0  0  0  0  0  0  0  0  0  0
   34.2150   39.1670   23.9250 C   0  0  0  0  0  0  0  0  0  0  0  0
   34.7610   37.9150   21.5290 C   0  0  0  0  0  0  0  0  0  0  0  0
   35.1680   37.2280   20.3320 C   0  0  0  0  0  0  0  0  0  0  0  0
   37.6510   36.5050   16.0630 C   0  0  0  0  0  0  0  0  0  0  0  0
   38.2660   36.5170   17.3180 C   0  0  0  0  0  0  0  0  0  0  0  0
   37.5400   36.0840   18.4320 C   0  0  0  0  0  0  0  0  0  0  0  0
   34.3830   37.1730   22.6880 C   0  0  0  0  0  0  0  0  0  0  0  0
   34.7340   39.3300   21.6400 C   0  0  0  0  0  0  0  0  0  0  0  0
   35.0960   35.8780   20.3020 C   0  0  0  0  0  0  0  0  0  0  0  0
   36.2400   35.6030   18.2480 C   0  0  0  0  0  0  0  0  0  0  0  0
   33.8980   35.0240   23.8520 C   0  0  0  0  0  0  0  0  0  0  0  0
   34.4550   35.0330   16.8360 F   0  0  0  0  0  0  0  0  0  0  0  0
   35.4730   35.0250   19.2680 O   0  0  0  0  0  0  0  0  0  0  0  0
   34.4610   39.9660   22.7890 N   0  0  0  0  0  0  0  0  0  0  0  0
   34.2950   33.8660   21.3430 O   0  0  0  0  0  0  0  0  0  0  0  0
   34.2700   35.7770   22.6210 N   0  0  0  0  0  0  0  0  0  0  0  0
   34.1080   37.7950   23.8840 N   0  0  0  0  0  0  0  0  0  0  0  0
   34.1500   39.8470   25.1260 N   0  0  0  0  0  0  0  0  0  0  0  0
   35.9100   36.0080   14.8450 H   0  0  0  0  0  0  0  0  0  0  0  0
   35.5390   37.8290   19.4970 H   0  0  0  0  0  0  0  0  0  0  0  0
   39.2880   36.8890   17.4350 H   0  0  0  0  0  0  0  0  0  0  0  0
   37.9840   36.1490   19.4280 H   0  0  0  0  0  0  0  0  0  0  0  0
   34.9350   39.9560   20.7560 H   0  0  0  0  0  0  0  0  0  0  0  0
   34.6960   35.1590   24.6320 H   0  0  0  0  0  0  0  0  0  0  0  0
   32.9290   35.4190   24.2630 H   0  0  0  0  0  0  0  0  0  0  0  0
   33.7850   33.9330   23.6220 H   0  0  0  0  0  0  0  0  0  0  0  0
   34.0240   40.8800   25.0930 H   0  0  0  0  0  0  0  0  0  0  0  0
   38.3080   37.0230   15.0270 F   0  0  0  0  0  0  0  0  0  0  0  0
   34.4110   37.6870   28.2980 C   0  0  0  0  0  0  0  0  0  0  0  0
   34.6000   38.0390   26.8230 C   0  0  0  0  0  0  0  0  0  0  0  0
   33.7660   39.2830   26.4510 C   0  0  0  0  0  0  0  0  0  0  0  0
   32.2450   39.0030   26.5430 C   0  0  0  0  0  0  0  0  0  0  0  0
   31.8380   38.7510   27.9960 C   0  0  0  0  0  0  0  0  0  0  0  0
   34.8220   38.5260   28.9240 H   0  0  0  0  0  0  0  0  0  0  0  0
   35.0320   36.7840   28.5340 H   0  0  0  0  0  0  0  0  0  0  0  0
   34.3180   37.1710   26.1750 H   0  0  0  0  0  0  0  0  0  0  0  0
   35.6800   38.2710   26.6380 H   0  0  0  0  0  0  0  0  0  0  0  0
   34.0190   40.1130   27.1800 H   0  0  0  0  0  0  0  0  0  0  0  0
   31.6940   39.9010   26.1610 H   0  0  0  0  0  0  0  0  0  0  0  0
   31.9760   38.1360   25.8930 H   0  0  0  0  0  0  0  0  0  0  0  0
   32.0360   39.6860   28.5900 H   0  0  0  0  0  0  0  0  0  0  0  0
   30.7330   38.5700   28.0380 H   0  0  0  0  0  0  0  0  0  0  0  0
   32.7250   37.4040   28.7040 S   0  0  0  0  0  0  0  0  0  0  0  0
   32.2550   36.1110   28.1580 O   0  0  0  0  0  0  0  0  0  0  0  0
   32.5630   37.4130   30.1840 O   0  0  0  0  0  0  0  0  0  0  0  0
  1  3  2  0  0  0  0
  1  7  1  0  0  0  0
  1 22  1  0  0  0  0
  2 12  1  0  0  0  0
  2 18  2  0  0  0  0
  2 19  1  0  0  0  0
  3 13  1  0  0  0  0
  3 15  1  0  0  0  0
  4 17  2  0  0  0  0
  4 20  1  0  0  0  0
  4 21  1  0  0  0  0
  5  6  1  0  0  0  0
  5 10  1  0  0  0  0
  5 11  2  0  0  0  0
  6 12  2  0  0  0  0
  6 23  1  0  0  0  0
  7  8  2  0  0  0  0
  7 31  1  0  0  0  0
  8  9  1  0  0  0  0
  8 24  1  0  0  0  0
  9 13  2  0  0  0  0
  9 25  1  0  0  0  0
 10 19  1  0  0  0  0
 10 20  2  0  0  0  0
 11 17  1  0  0  0  0
 11 26  1  0  0  0  0
 12 16  1  0  0  0  0
 13 16  1  0  0  0  0
 14 19  1  0  0  0  0
 14 27  1  0  0  0  0
 14 28  1  0  0  0  0
 14 29  1  0  0  0  0
 21 30  1  0  0  0  0
 21 34  1  0  0  0  0
 32 33  1  0  0  0  0
 32 37  1  0  0  0  0
 32 38  1  0  0  0  0
 32 46  1  0  0  0  0
 33 34  1  0  0  0  0
 33 39  1  0  0  0  0
 33 40  1  0  0  0  0
 34 35  1  0  0  0  0
 34 41  1  0  0  0  0
 35 36  1  0  0  0  0
 35 42  1  0  0  0  0
 35 43  1  0  0  0  0
 36 44  1  0  0  0  0
 36 45  1  0  0  0  0
 36 46  1  0  0  0  0
 46 47  2  0  0  0  0
 46 48  2  0  0  0  0
M  END
$$$$
