p38a_2o
 OpenBabel02232411163D
Structure written by MMmdl.
 55 58  0  0  0  0  0  0  0  0999 V2000
   38.2860   36.5380   17.1250 C   0  0  0  0  0  0  0  0  0  0  0  0
   34.0010   35.0570   20.7670 C   0  0  0  0  0  0  0  0  0  0  0  0
   37.4510   36.0580   18.1310 C   0  0  0  0  0  0  0  0  0  0  0  0
   33.5330   39.0240   23.5050 C   0  0  0  0  0  0  0  0  0  0  0  0
   34.3630   37.9010   21.1280 C   0  0  0  0  0  0  0  0  0  0  0  0
   34.9200   37.2610   19.9650 C   0  0  0  0  0  0  0  0  0  0  0  0
   37.6960   36.7350   15.8690 C   0  0  0  0  0  0  0  0  0  0  0  0
   36.3570   36.4490   15.5910 C   0  0  0  0  0  0  0  0  0  0  0  0
   35.5440   35.9480   16.6130 C   0  0  0  0  0  0  0  0  0  0  0  0
   33.7080   37.1210   22.1270 C   0  0  0  0  0  0  0  0  0  0  0  0
   34.4780   39.2920   21.3750 C   0  0  0  0  0  0  0  0  0  0  0  0
   34.7880   35.9230   19.8420 C   0  0  0  0  0  0  0  0  0  0  0  0
   36.0980   35.7460   17.8790 C   0  0  0  0  0  0  0  0  0  0  0  0
   37.9210   35.8880   19.3590 F   0  0  0  0  0  0  0  0  0  0  0  0
   35.3340   35.0990   18.8610 O   0  0  0  0  0  0  0  0  0  0  0  0
   34.0950   39.8660   22.5300 N   0  0  0  0  0  0  0  0  0  0  0  0
   33.7720   33.8860   20.5930 O   0  0  0  0  0  0  0  0  0  0  0  0
   33.4790   35.7450   21.9300 N   0  0  0  0  0  0  0  0  0  0  0  0
   33.2940   37.6820   23.3050 N   0  0  0  0  0  0  0  0  0  0  0  0
   33.1550   39.6050   24.7060 N   0  0  0  0  0  0  0  0  0  0  0  0
   39.3340   36.7900   17.3100 H   0  0  0  0  0  0  0  0  0  0  0  0
   35.4470   37.8830   19.2400 H   0  0  0  0  0  0  0  0  0  0  0  0
   35.9350   36.6290   14.6010 H   0  0  0  0  0  0  0  0  0  0  0  0
   34.4890   35.7380   16.4110 H   0  0  0  0  0  0  0  0  0  0  0  0
   34.9030   39.9590   20.6070 H   0  0  0  0  0  0  0  0  0  0  0  0
   33.4170   40.5970   24.8750 H   0  0  0  0  0  0  0  0  0  0  0  0
   38.4380   37.2630   14.8990 F   0  0  0  0  0  0  0  0  0  0  0  0
   33.8820   37.0480   27.4980 C   0  0  0  0  0  0  0  0  0  0  0  0
   34.1830   37.9960   26.3370 C   0  0  0  0  0  0  0  0  0  0  0  0
   32.9290   38.8210   25.9620 C   0  0  0  0  0  0  0  0  0  0  0  0
   31.6590   37.9530   25.8380 C   0  0  0  0  0  0  0  0  0  0  0  0
   31.5340   36.9680   27.0040 C   0  0  0  0  0  0  0  0  0  0  0  0
   32.7520   36.2040   27.1740 O   0  0  0  0  0  0  0  0  0  0  0  0
   33.6620   37.6050   28.4380 H   0  0  0  0  0  0  0  0  0  0  0  0
   34.6930   36.3020   27.6530 H   0  0  0  0  0  0  0  0  0  0  0  0
   34.5210   37.3880   25.4620 H   0  0  0  0  0  0  0  0  0  0  0  0
   35.0030   38.6930   26.6330 H   0  0  0  0  0  0  0  0  0  0  0  0
   32.7520   39.5950   26.7660 H   0  0  0  0  0  0  0  0  0  0  0  0
   30.7620   38.6180   25.8180 H   0  0  0  0  0  0  0  0  0  0  0  0
   31.6780   37.3700   24.8850 H   0  0  0  0  0  0  0  0  0  0  0  0
   31.3010   37.4920   27.9590 H   0  0  0  0  0  0  0  0  0  0  0  0
   30.7830   36.1740   26.7890 H   0  0  0  0  0  0  0  0  0  0  0  0
   32.6640   34.9710   22.9290 C   0  0  0  0  0  0  0  0  0  0  0  0
   31.7010   35.5340   23.1020 H   0  0  0  0  0  0  0  0  0  0  0  0
   32.4160   33.9710   22.4720 H   0  0  0  0  0  0  0  0  0  0  0  0
   33.3210   34.7480   24.2910 C   0  0  0  0  0  0  0  0  0  0  0  0
   33.1320   35.6590   24.9430 H   0  0  0  0  0  0  0  0  0  0  0  0
   32.7410   33.9300   24.8060 H   0  0  0  0  0  0  0  0  0  0  0  0
   35.0440   34.3940   24.2490 S   0  0  0  0  0  0  0  0  0  0  0  0
   35.7820   35.6530   24.1040 O   0  0  0  0  0  0  0  0  0  0  0  0
   35.2890   33.4410   23.1690 O   0  0  0  0  0  0  0  0  0  0  0  0
   35.3490   33.6840   25.8040 C   0  0  0  0  0  0  0  0  0  0  0  0
   34.8000   32.7210   25.9650 H   0  0  0  0  0  0  0  0  0  0  0  0
   36.4310   33.4690   25.9550 H   0  0  0  0  0  0  0  0  0  0  0  0
   35.0410   34.3430   26.6560 H   0  0  0  0  0  0  0  0  0  0  0  0
  1  3  2  0  0  0  0
  1  7  1  0  0  0  0
  1 21  1  0  0  0  0
  2 12  1  0  0  0  0
  2 17  2  0  0  0  0
  2 18  1  0  0  0  0
  3 13  1  0  0  0  0
  3 14  1  0  0  0  0
  4 16  2  0  0  0  0
  4 19  1  0  0  0  0
  4 20  1  0  0  0  0
  5  6  1  0  0  0  0
  5 10  1  0  0  0  0
  5 11  2  0  0  0  0
  6 12  2  0  0  0  0
  6 22  1  0  0  0  0
  7  8  2  0  0  0  0
  7 27  1  0  0  0  0
  8  9  1  0  0  0  0
  8 23  1  0  0  0  0
  9 13  2  0  0  0  0
  9 24  1  0  0  0  0
 10 18  1  0  0  0  0
 10 19  2  0  0  0  0
 11 16  1  0  0  0  0
 11 25  1  0  0  0  0
 12 15  1  0  0  0  0
 13 15  1  0  0  0  0
 18 43  1  0  0  0  0
 20 26  1  0  0  0  0
 20 30  1  0  0  0  0
 28 29  1  0  0  0  0
 28 33  1  0  0  0  0
 28 34  1  0  0  0  0
 28 35  1  0  0  0  0
 29 30  1  0  0  0  0
 29 36  1  0  0  0  0
 29 37  1  0  0  0  0
 30 31  1  0  0  0  0
 30 38  1  0  0  0  0
 31 32  1  0  0  0  0
 31 39  1  0  0  0  0
 31 40  1  0  0  0  0
 32 33  1  0  0  0  0
 32 41  1  0  0  0  0
 32 42  1  0  0  0  0
 43 44  1  0  0  0  0
 43 45  1  0  0  0  0
 43 46  1  0  0  0  0
 46 47  1  0  0  0  0
 46 48  1  0  0  0  0
 46 49  1  0  0  0  0
 49 50  2  0  0  0  0
 49 51  2  0  0  0  0
 49 52  1  0  0  0  0
 52 53  1  0  0  0  0
 52 54  1  0  0  0  0
 52 55  1  0  0  0  0
M  END
$$$$
