p38a_3flw
 OpenBabel02232411163D
Structure written by MMmdl.
 49 51  0  0  0  0  0  0  0  0999 V2000
   38.3370   36.5920   17.0910 C   0  0  0  0  0  0  0  0  0  0  0  0
   37.7000   36.7640   15.8550 C   0  0  0  0  0  0  0  0  0  0  0  0
   33.1710   37.4280   26.5370 C   0  0  0  0  0  0  0  0  0  0  0  0
   32.4060   36.6080   27.5870 C   0  0  0  0  0  0  0  0  0  0  0  0
   31.9140   39.6430   27.0020 C   0  0  0  0  0  0  0  0  0  0  0  0
   33.1410   34.6810   23.1320 C   0  0  0  0  0  0  0  0  0  0  0  0
   38.0660   35.9590   19.3430 F   0  0  0  0  0  0  0  0  0  0  0  0
   37.5500   36.1010   18.1290 C   0  0  0  0  0  0  0  0  0  0  0  0
   38.3980   37.2940   14.8540 F   0  0  0  0  0  0  0  0  0  0  0  0
   36.3580   36.4510   15.6280 C   0  0  0  0  0  0  0  0  0  0  0  0
   35.5940   35.9370   16.6810 C   0  0  0  0  0  0  0  0  0  0  0  0
   36.1990   35.7500   17.9270 C   0  0  0  0  0  0  0  0  0  0  0  0
   35.4950   35.0630   18.9210 O   0  0  0  0  0  0  0  0  0  0  0  0
   35.0000   35.8290   19.9730 C   0  0  0  0  0  0  0  0  0  0  0  0
   35.0470   37.1730   20.1240 C   0  0  0  0  0  0  0  0  0  0  0  0
   34.4980   37.7520   21.3210 C   0  0  0  0  0  0  0  0  0  0  0  0
   34.5500   39.1430   21.6060 C   0  0  0  0  0  0  0  0  0  0  0  0
   34.0960   39.6710   22.7530 N   0  0  0  0  0  0  0  0  0  0  0  0
   34.3760   34.8950   20.9480 C   0  0  0  0  0  0  0  0  0  0  0  0
   34.3300   33.6890   20.8330 O   0  0  0  0  0  0  0  0  0  0  0  0
   33.8020   35.5300   22.1010 N   0  0  0  0  0  0  0  0  0  0  0  0
   33.8860   36.9180   22.3040 C   0  0  0  0  0  0  0  0  0  0  0  0
   33.3840   37.4300   23.4740 N   0  0  0  0  0  0  0  0  0  0  0  0
   33.5240   38.7860   23.6930 C   0  0  0  0  0  0  0  0  0  0  0  0
   33.1140   39.3320   24.8870 N   0  0  0  0  0  0  0  0  0  0  0  0
   32.3530   38.5960   25.9540 C   0  0  0  0  0  0  0  0  0  0  0  0
   33.0210   40.2280   27.8880 C   0  0  0  0  0  0  0  0  0  0  0  0
   33.0770   39.6010   29.1800 O   0  0  0  0  0  0  0  0  0  0  0  0
   31.4330   35.7390   26.9830 O   0  0  0  0  0  0  0  0  0  0  0  0
   39.3840   36.8680   17.2440 H   0  0  0  0  0  0  0  0  0  0  0  0
   34.1190   37.8060   26.9830 H   0  0  0  0  0  0  0  0  0  0  0  0
   33.4380   36.7260   25.7030 H   0  0  0  0  0  0  0  0  0  0  0  0
   33.1060   35.8990   28.0900 H   0  0  0  0  0  0  0  0  0  0  0  0
   31.8810   37.2530   28.3240 H   0  0  0  0  0  0  0  0  0  0  0  0
   31.4330   40.4890   26.4500 H   0  0  0  0  0  0  0  0  0  0  0  0
   31.1290   39.1760   27.6450 H   0  0  0  0  0  0  0  0  0  0  0  0
   32.1290   35.1030   23.3820 H   0  0  0  0  0  0  0  0  0  0  0  0
   33.0140   33.6360   22.7460 H   0  0  0  0  0  0  0  0  0  0  0  0
   33.7630   34.6600   24.0660 H   0  0  0  0  0  0  0  0  0  0  0  0
   35.8940   36.6160   14.6530 H   0  0  0  0  0  0  0  0  0  0  0  0
   34.5360   35.7020   16.5240 H   0  0  0  0  0  0  0  0  0  0  0  0
   35.4890   37.8430   19.3840 H   0  0  0  0  0  0  0  0  0  0  0  0
   34.9790   39.8430   20.8680 H   0  0  0  0  0  0  0  0  0  0  0  0
   33.2520   40.3510   25.0420 H   0  0  0  0  0  0  0  0  0  0  0  0
   31.4150   38.1720   25.4930 H   0  0  0  0  0  0  0  0  0  0  0  0
   34.0190   40.1600   27.4000 H   0  0  0  0  0  0  0  0  0  0  0  0
   32.7830   41.2840   28.1500 H   0  0  0  0  0  0  0  0  0  0  0  0
   33.3960   38.6720   29.0840 H   0  0  0  0  0  0  0  0  0  0  0  0
   30.5650   36.2950   26.8560 H   0  0  0  0  0  0  0  0  0  0  0  0
  1  2  2  0  0  0  0
  1  8  1  0  0  0  0
  1 30  1  0  0  0  0
  2  9  1  0  0  0  0
  2 10  1  0  0  0  0
  3  4  1  0  0  0  0
  3 26  1  0  0  0  0
  3 31  1  0  0  0  0
  3 32  1  0  0  0  0
  4 29  1  0  0  0  0
  4 33  1  0  0  0  0
  4 34  1  0  0  0  0
  5 26  1  0  0  0  0
  5 27  1  0  0  0  0
  5 35  1  0  0  0  0
  5 36  1  0  0  0  0
  6 21  1  0  0  0  0
  6 37  1  0  0  0  0
  6 38  1  0  0  0  0
  6 39  1  0  0  0  0
  7  8  1  0  0  0  0
  8 12  2  0  0  0  0
 10 11  2  0  0  0  0
 10 40  1  0  0  0  0
 11 12  1  0  0  0  0
 11 41  1  0  0  0  0
 12 13  1  0  0  0  0
 13 14  1  0  0  0  0
 14 15  2  0  0  0  0
 14 19  1  0  0  0  0
 15 16  1  0  0  0  0
 15 42  1  0  0  0  0
 16 17  2  0  0  0  0
 16 22  1  0  0  0  0
 17 18  1  0  0  0  0
 17 43  1  0  0  0  0
 18 24  2  0  0  0  0
 19 20  2  0  0  0  0
 19 21  1  0  0  0  0
 21 22  1  0  0  0  0
 22 23  2  0  0  0  0
 23 24  1  0  0  0  0
 24 25  1  0  0  0  0
 25 26  1  0  0  0  0
 25 44  1  0  0  0  0
 26 45  1  0  0  0  0
 27 28  1  0  0  0  0
 27 46  1  0  0  0  0
 27 47  1  0  0  0  0
 28 48  1  0  0  0  0
 29 49  1  0  0  0  0
M  END
$$$$
