20667(2qbp)
 OpenBabel02232411173D
Structure written by MMmdl.
 60 63  0  0  0  0  0  0  0  0999 V2000
   42.4360   18.0220   12.6600 O   0  0  0  0  0  0  0  0  0  0  0  0
   41.2940   17.7570   13.0550 C   0  0  0  0  0  0  0  0  0  0  0  0
   40.2430   18.3600   12.7480 O   0  5  0  0  0  0  0  0  0  0  0  0
   41.1090   16.5670   14.0420 C   0  0  0  0  0  0  0  0  0  0  0  0
   42.4370   15.9580   13.9800 O   0  0  0  0  0  0  0  0  0  0  0  0
   42.6390   14.9640   14.8860 C   0  0  0  0  0  0  0  0  0  0  0  0
   42.0480   13.6470   14.7570 C   0  0  0  0  0  0  0  0  0  0  0  0
   40.8960   13.2890   13.2830 Br  0  0  0  0  0  0  0  0  0  0  0  0
   42.4300   12.7470   15.7180 C   0  0  0  0  0  0  0  0  0  0  0  0
   42.0260   11.3800   15.9820 C   0  0  0  0  0  0  0  0  0  0  0  0
   42.7440   10.5440   16.8760 C   0  0  0  0  0  0  0  0  0  0  0  0
   42.2990    9.2530   17.1370 C   0  0  0  0  0  0  0  0  0  0  0  0
   41.1660    8.7150   16.5070 C   0  0  0  0  0  0  0  0  0  0  0  0
   40.4680    9.5160   15.5930 C   0  0  0  0  0  0  0  0  0  0  0  0
   39.4010    9.0400   14.7840 N   0  0  0  0  0  0  0  0  0  0  0  0
   38.5410    7.9070   15.1970 C   0  0  0  0  0  0  0  0  0  0  0  0
   37.0660    8.1440   14.7820 C   0  0  0  0  0  0  0  0  0  0  0  0
   36.8430    8.0510   13.2620 C   0  0  0  0  0  0  0  0  0  0  0  0
   37.3860    6.8030   12.6640 N   0  0  0  0  0  0  0  0  0  0  0  0
   36.3670    5.5340   12.2050 S   0  0  0  0  0  0  0  0  0  0  0  0
   36.9750    4.9060   11.0300 O   0  0  0  0  0  0  0  0  0  0  0  0
   35.0910    6.1830   11.8600 O   0  0  0  0  0  0  0  0  0  0  0  0
   36.2670    4.3120   13.4620 C   0  0  0  0  0  0  0  0  0  0  0  0
   35.1360    4.4340   14.4290 C   0  0  0  0  0  0  0  0  0  0  0  0
   33.8880    3.8530   14.1460 C   0  0  0  0  0  0  0  0  0  0  0  0
   32.8700    3.8810   15.1030 C   0  0  0  0  0  0  0  0  0  0  0  0
   33.0720    4.5060   16.3380 C   0  0  0  0  0  0  0  0  0  0  0  0
   34.3130    5.0800   16.6250 C   0  0  0  0  0  0  0  0  0  0  0  0
   35.3420    5.0360   15.6810 C   0  0  0  0  0  0  0  0  0  0  0  0
   38.8010    6.5380   13.0430 C   0  0  0  0  0  0  0  0  0  0  0  0
   39.0470    6.5890   14.5580 C   0  0  0  0  0  0  0  0  0  0  0  0
   40.8810   10.8510   15.3760 C   0  0  0  0  0  0  0  0  0  0  0  0
   43.5980   13.5410   16.7600 S   0  0  0  0  0  0  0  0  0  0  0  0
   43.5320   15.0690   15.9190 C   0  0  0  0  0  0  0  0  0  0  0  0
   44.3830   16.2590   16.3740 C   0  0  0  0  0  0  0  0  0  0  0  0
   44.9870   16.0920   17.4580 O   0  0  0  0  0  0  0  0  0  0  0  0
   44.4530   17.2470   15.6440 O   0  5  0  0  0  0  0  0  0  0  0  0
   40.3350   15.8580   13.6850 H   0  0  0  0  0  0  0  0  0  0  0  0
   40.8810   16.9030   15.0730 H   0  0  0  0  0  0  0  0  0  0  0  0
   43.6520   10.8860   17.3750 H   0  0  0  0  0  0  0  0  0  0  0  0
   42.8360    8.6210   17.8480 H   0  0  0  0  0  0  0  0  0  0  0  0
   40.8640    7.6920   16.7120 H   0  0  0  0  0  0  0  0  0  0  0  0
   38.9140    9.7450   14.2120 H   0  0  0  0  0  0  0  0  0  0  0  0
   38.5720    7.7690   16.3130 H   0  0  0  0  0  0  0  0  0  0  0  0
   36.4460    7.3780   15.3010 H   0  0  0  0  0  0  0  0  0  0  0  0
   36.7310    9.1480   15.1310 H   0  0  0  0  0  0  0  0  0  0  0  0
   35.7470    8.1240   13.0480 H   0  0  0  0  0  0  0  0  0  0  0  0
   37.3830    8.9090   12.7670 H   0  0  0  0  0  0  0  0  0  0  0  0
   36.2180    3.2860   12.9870 H   0  0  0  0  0  0  0  0  0  0  0  0
   37.2380    4.2870   14.0440 H   0  0  0  0  0  0  0  0  0  0  0  0
   33.7100    3.3520   13.1900 H   0  0  0  0  0  0  0  0  0  0  0  0
   31.9150    3.3930   14.8930 H   0  0  0  0  0  0  0  0  0  0  0  0
   32.2740    4.5200   17.0840 H   0  0  0  0  0  0  0  0  0  0  0  0
   34.4970    5.5350   17.6030 H   0  0  0  0  0  0  0  0  0  0  0  0
   36.3250    5.4380   15.9470 H   0  0  0  0  0  0  0  0  0  0  0  0
   39.1320    5.5450   12.6530 H   0  0  0  0  0  0  0  0  0  0  0  0
   39.4260    7.3490   12.5740 H   0  0  0  0  0  0  0  0  0  0  0  0
   40.1480    6.4930   14.7350 H   0  0  0  0  0  0  0  0  0  0  0  0
   38.5510    5.7370   15.0730 H   0  0  0  0  0  0  0  0  0  0  0  0
   40.2680   11.4490   14.7020 H   0  0  0  0  0  0  0  0  0  0  0  0
  1  2  2  0  0  0  0
  2  3  1  0  0  0  0
  2  4  1  0  0  0  0
  4  5  1  0  0  0  0
  4 38  1  0  0  0  0
  4 39  1  0  0  0  0
  5  6  1  0  0  0  0
  6 34  2  0  0  0  0
  6  7  1  0  0  0  0
  7  8  1  0  0  0  0
  7  9  2  0  0  0  0
  9 10  1  0  0  0  0
  9 33  1  0  0  0  0
 10 32  2  0  0  0  0
 10 11  1  0  0  0  0
 11 12  2  0  0  0  0
 11 40  1  0  0  0  0
 12 13  1  0  0  0  0
 12 41  1  0  0  0  0
 13 14  2  0  0  0  0
 13 42  1  0  0  0  0
 14 15  1  0  0  0  0
 14 32  1  0  0  0  0
 15 16  1  0  0  0  0
 15 43  1  0  0  0  0
 16 31  1  0  0  0  0
 16 17  1  0  0  0  0
 16 44  1  0  0  0  0
 17 18  1  0  0  0  0
 17 45  1  0  0  0  0
 17 46  1  0  0  0  0
 18 19  1  0  0  0  0
 18 47  1  0  0  0  0
 18 48  1  0  0  0  0
 19 20  1  0  0  0  0
 19 30  1  0  0  0  0
 20 21  2  0  0  0  0
 20 22  2  0  0  0  0
 20 23  1  0  0  0  0
 23 24  1  0  0  0  0
 23 49  1  0  0  0  0
 23 50  1  0  0  0  0
 24 29  2  0  0  0  0
 24 25  1  0  0  0  0
 25 26  2  0  0  0  0
 25 51  1  0  0  0  0
 26 27  1  0  0  0  0
 26 52  1  0  0  0  0
 27 28  2  0  0  0  0
 27 53  1  0  0  0  0
 28 29  1  0  0  0  0
 28 54  1  0  0  0  0
 29 55  1  0  0  0  0
 30 31  1  0  0  0  0
 30 56  1  0  0  0  0
 30 57  1  0  0  0  0
 31 58  1  0  0  0  0
 31 59  1  0  0  0  0
 32 60  1  0  0  0  0
 33 34  1  0  0  0  0
 34 35  1  0  0  0  0
 35 36  2  0  0  0  0
 35 37  1  0  0  0  0
M  CHG  2   3  -1  37  -1
M  END
$$$$
