p38a_2n
 OpenBabel02232411163D
Structure written by MMmdl.
 53 56  0  0  0  0  0  0  0  0999 V2000
   38.2860   36.5620   17.0870 C   0  0  0  0  0  0  0  0  0  0  0  0
   34.5320   34.9120   21.0300 C   0  0  0  0  0  0  0  0  0  0  0  0
   37.4780   36.0660   18.1050 C   0  0  0  0  0  0  0  0  0  0  0  0
   33.7920   38.8990   23.6760 C   0  0  0  0  0  0  0  0  0  0  0  0
   34.5710   37.7870   21.2780 C   0  0  0  0  0  0  0  0  0  0  0  0
   34.9880   37.1800   20.0440 C   0  0  0  0  0  0  0  0  0  0  0  0
   37.6690   36.7600   15.8440 C   0  0  0  0  0  0  0  0  0  0  0  0
   36.3260   36.4680   15.5940 C   0  0  0  0  0  0  0  0  0  0  0  0
   35.5410   35.9490   16.6290 C   0  0  0  0  0  0  0  0  0  0  0  0
   34.1650   36.9680   22.3750 C   0  0  0  0  0  0  0  0  0  0  0  0
   34.5650   39.1930   21.4830 C   0  0  0  0  0  0  0  0  0  0  0  0
   34.9900   35.8310   19.9520 C   0  0  0  0  0  0  0  0  0  0  0  0
   36.1250   35.7350   17.8800 C   0  0  0  0  0  0  0  0  0  0  0  0
   37.9750   35.9010   19.3240 F   0  0  0  0  0  0  0  0  0  0  0  0
   35.3850   35.0600   18.8590 O   0  0  0  0  0  0  0  0  0  0  0  0
   34.2010   39.7640   22.6410 N   0  0  0  0  0  0  0  0  0  0  0  0
   34.4830   33.7050   20.9440 O   0  0  0  0  0  0  0  0  0  0  0  0
   34.1500   35.5660   22.2550 N   0  0  0  0  0  0  0  0  0  0  0  0
   33.7970   37.5210   23.5750 N   0  0  0  0  0  0  0  0  0  0  0  0
   33.3070   39.4720   24.8290 N   0  0  0  0  0  0  0  0  0  0  0  0
   39.3350   36.8230   17.2570 H   0  0  0  0  0  0  0  0  0  0  0  0
   35.2980   37.8350   19.2270 H   0  0  0  0  0  0  0  0  0  0  0  0
   35.8770   36.6560   14.6180 H   0  0  0  0  0  0  0  0  0  0  0  0
   34.4820   35.7310   16.4530 H   0  0  0  0  0  0  0  0  0  0  0  0
   34.8700   39.8720   20.6670 H   0  0  0  0  0  0  0  0  0  0  0  0
   33.4350   40.4900   24.9900 H   0  0  0  0  0  0  0  0  0  0  0  0
   38.3890   37.2940   14.8610 F   0  0  0  0  0  0  0  0  0  0  0  0
   31.3710   38.5720   27.9950 C   0  0  0  0  0  0  0  0  0  0  0  0
   31.7230   39.3370   26.7120 C   0  0  0  0  0  0  0  0  0  0  0  0
   32.9270   38.6590   26.0240 C   0  0  0  0  0  0  0  0  0  0  0  0
   34.1110   38.5480   27.0090 C   0  0  0  0  0  0  0  0  0  0  0  0
   33.6530   37.8340   28.2870 C   0  0  0  0  0  0  0  0  0  0  0  0
   32.5060   38.4830   28.8850 O   0  0  0  0  0  0  0  0  0  0  0  0
   31.0100   37.5440   27.7580 H   0  0  0  0  0  0  0  0  0  0  0  0
   30.6290   39.1260   28.6120 H   0  0  0  0  0  0  0  0  0  0  0  0
   31.9780   40.3950   26.9560 H   0  0  0  0  0  0  0  0  0  0  0  0
   30.8450   39.3340   26.0220 H   0  0  0  0  0  0  0  0  0  0  0  0
   32.6240   37.6280   25.6840 H   0  0  0  0  0  0  0  0  0  0  0  0
   34.9390   37.9620   26.5410 H   0  0  0  0  0  0  0  0  0  0  0  0
   34.4990   39.5650   27.2550 H   0  0  0  0  0  0  0  0  0  0  0  0
   33.3930   36.7700   28.0760 H   0  0  0  0  0  0  0  0  0  0  0  0
   34.4190   37.9140   29.0920 H   0  0  0  0  0  0  0  0  0  0  0  0
   33.7320   34.7200   23.4250 C   0  0  0  0  0  0  0  0  0  0  0  0
   34.0750   33.6670   23.2320 H   0  0  0  0  0  0  0  0  0  0  0  0
   34.2470   35.1200   24.3460 H   0  0  0  0  0  0  0  0  0  0  0  0
   32.2180   34.7280   23.6770 C   0  0  0  0  0  0  0  0  0  0  0  0
   32.0480   34.2890   24.6970 H   0  0  0  0  0  0  0  0  0  0  0  0
   31.8340   35.7810   23.7110 H   0  0  0  0  0  0  0  0  0  0  0  0
   31.3780   33.9540   22.6620 C   0  0  0  0  0  0  0  0  0  0  0  0
   30.2900   34.1310   22.8550 H   0  0  0  0  0  0  0  0  0  0  0  0
   31.6440   34.2100   21.6130 H   0  0  0  0  0  0  0  0  0  0  0  0
   31.6570   32.5460   22.8570 O   0  0  0  0  0  0  0  0  0  0  0  0
   31.0200   32.0300   22.3030 H   0  0  0  0  0  0  0  0  0  0  0  0
  1  3  2  0  0  0  0
  1  7  1  0  0  0  0
  1 21  1  0  0  0  0
  2 12  1  0  0  0  0
  2 17  2  0  0  0  0
  2 18  1  0  0  0  0
  3 13  1  0  0  0  0
  3 14  1  0  0  0  0
  4 16  2  0  0  0  0
  4 19  1  0  0  0  0
  4 20  1  0  0  0  0
  5  6  1  0  0  0  0
  5 10  1  0  0  0  0
  5 11  2  0  0  0  0
  6 12  2  0  0  0  0
  6 22  1  0  0  0  0
  7  8  2  0  0  0  0
  7 27  1  0  0  0  0
  8  9  1  0  0  0  0
  8 23  1  0  0  0  0
  9 13  2  0  0  0  0
  9 24  1  0  0  0  0
 10 18  1  0  0  0  0
 10 19  2  0  0  0  0
 11 16  1  0  0  0  0
 11 25  1  0  0  0  0
 12 15  1  0  0  0  0
 13 15  1  0  0  0  0
 18 43  1  0  0  0  0
 20 26  1  0  0  0  0
 20 30  1  0  0  0  0
 28 29  1  0  0  0  0
 28 33  1  0  0  0  0
 28 34  1  0  0  0  0
 28 35  1  0  0  0  0
 29 30  1  0  0  0  0
 29 36  1  0  0  0  0
 29 37  1  0  0  0  0
 30 31  1  0  0  0  0
 30 38  1  0  0  0  0
 31 32  1  0  0  0  0
 31 39  1  0  0  0  0
 31 40  1  0  0  0  0
 32 33  1  0  0  0  0
 32 41  1  0  0  0  0
 32 42  1  0  0  0  0
 43 44  1  0  0  0  0
 43 45  1  0  0  0  0
 43 46  1  0  0  0  0
 46 47  1  0  0  0  0
 46 48  1  0  0  0  0
 46 49  1  0  0  0  0
 49 50  1  0  0  0  0
 49 51  1  0  0  0  0
 49 52  1  0  0  0  0
 52 53  1  0  0  0  0
M  END
$$$$
