p38a_3fmk
 OpenBabel02232411163D
Structure written by MMmdl.
 46 49  0  0  1  0  0  0  0  0999 V2000
   37.4990   36.0720   18.2360 C   0  0  0  0  0  0  0  0  0  0  0  0
   38.2800   36.5280   17.1780 C   0  0  0  0  0  0  0  0  0  0  0  0
   33.4910   35.1130   23.5600 C   0  0  0  0  0  0  0  0  0  0  0  0
   36.2830   36.3780   15.7420 C   0  0  0  0  0  0  0  0  0  0  0  0
   34.6390   39.4100   21.4690 C   0  0  0  0  0  0  0  0  0  0  0  0
   32.5760   39.4470   25.8780 C   0  0  1  0  0  0  0  0  0  0  0  0
   33.2490   38.3210   26.7160 C   0  0  0  0  0  0  0  0  0  0  0  0
   33.8190   39.2480   23.6620 C   0  0  0  0  0  0  0  0  0  0  0  0
   34.4420   35.1220   21.2180 C   0  0  0  0  0  0  0  0  0  0  0  0
   34.9990   35.9620   20.1240 C   0  0  0  0  0  0  0  0  0  0  0  0
   35.0510   37.3140   20.1540 C   0  0  0  0  0  0  0  0  0  0  0  0
   36.1380   35.7450   18.0620 C   0  0  0  0  0  0  0  0  0  0  0  0
   35.5230   35.9080   16.8180 C   0  0  0  0  0  0  0  0  0  0  0  0
   34.6000   37.9970   21.3360 C   0  0  0  0  0  0  0  0  0  0  0  0
   34.1070   37.2560   22.4490 C   0  0  0  0  0  0  0  0  0  0  0  0
   33.5480   39.9160   24.8470 N   0  0  0  0  0  0  0  0  0  0  0  0
   37.6310   36.6820   15.9450 C   0  0  0  0  0  0  0  0  0  0  0  0
   38.3260   37.1830   14.9270 F   0  0  0  0  0  0  0  0  0  0  0  0
   38.0310   35.9420   19.4440 F   0  0  0  0  0  0  0  0  0  0  0  0
   35.4240   35.1230   19.0970 O   0  0  0  0  0  0  0  0  0  0  0  0
   34.3260   33.9160   21.1900 O   0  0  0  0  0  0  0  0  0  0  0  0
   34.0190   35.8560   22.3810 N   0  0  0  0  0  0  0  0  0  0  0  0
   33.7090   37.8780   23.6100 N   0  0  0  0  0  0  0  0  0  0  0  0
   34.2730   40.0440   22.5940 N   0  0  0  0  0  0  0  0  0  0  0  0
   31.2350   39.0120   25.2890 C   0  0  0  0  0  0  0  0  0  0  0  0
   32.4710   38.0520   27.9480 N   0  0  0  0  0  0  0  0  0  0  0  0
   32.2520   38.9810   28.9190 N   0  0  0  0  0  0  0  0  0  0  0  0
   31.4750   38.3350   29.8350 C   0  0  0  0  0  0  0  0  0  0  0  0
   31.2470   37.0060   29.3900 N   0  0  0  0  0  0  0  0  0  0  0  0
   31.8500   36.8670   28.2500 N   0  0  0  0  0  0  0  0  0  0  0  0
   39.3340   36.7920   17.3110 H   0  0  0  0  0  0  0  0  0  0  0  0
   34.1560   35.2840   24.4500 H   0  0  0  0  0  0  0  0  0  0  0  0
   32.4590   35.4830   23.8110 H   0  0  0  0  0  0  0  0  0  0  0  0
   33.4440   34.0160   23.3390 H   0  0  0  0  0  0  0  0  0  0  0  0
   35.8110   36.5180   14.7660 H   0  0  0  0  0  0  0  0  0  0  0  0
   34.9660   40.0320   20.6220 H   0  0  0  0  0  0  0  0  0  0  0  0
   32.4150   40.3450   26.5500 H   0  0  0  0  0  0  0  0  0  0  0  0
   33.3140   37.3660   26.1170 H   0  0  0  0  0  0  0  0  0  0  0  0
   34.2910   38.6450   27.0020 H   0  0  0  0  0  0  0  0  0  0  0  0
   35.4290   37.9150   19.3250 H   0  0  0  0  0  0  0  0  0  0  0  0
   34.4590   35.6890   16.6800 H   0  0  0  0  0  0  0  0  0  0  0  0
   33.6600   40.9530   24.8500 H   0  0  0  0  0  0  0  0  0  0  0  0
   30.8130   39.8270   24.6580 H   0  0  0  0  0  0  0  0  0  0  0  0
   31.3420   38.0910   24.6690 H   0  0  0  0  0  0  0  0  0  0  0  0
   30.5130   38.7990   26.1080 H   0  0  0  0  0  0  0  0  0  0  0  0
   31.0810   38.7560   30.7590 H   0  0  0  0  0  0  0  0  0  0  0  0
  1  2  2  0  0  0  0
  1 12  1  0  0  0  0
  1 19  1  0  0  0  0
  2 17  1  0  0  0  0
  2 31  1  0  0  0  0
  3 22  1  0  0  0  0
  3 32  1  0  0  0  0
  3 33  1  0  0  0  0
  3 34  1  0  0  0  0
  4 13  1  0  0  0  0
  4 17  2  0  0  0  0
  4 35  1  0  0  0  0
  5 14  2  0  0  0  0
  5 24  1  0  0  0  0
  5 36  1  0  0  0  0
  6  7  1  0  0  0  0
  6 16  1  0  0  0  0
  6 25  1  0  0  0  0
  6 37  1  6  0  0  0
  7 26  1  0  0  0  0
  7 38  1  0  0  0  0
  7 39  1  0  0  0  0
  8 16  1  0  0  0  0
  8 23  1  0  0  0  0
  8 24  2  0  0  0  0
  9 10  1  0  0  0  0
  9 21  2  0  0  0  0
  9 22  1  0  0  0  0
 10 11  2  0  0  0  0
 10 20  1  0  0  0  0
 11 14  1  0  0  0  0
 11 40  1  0  0  0  0
 12 13  2  0  0  0  0
 12 20  1  0  0  0  0
 13 41  1  0  0  0  0
 14 15  1  0  0  0  0
 15 22  1  0  0  0  0
 15 23  2  0  0  0  0
 16 42  1  0  0  0  0
 17 18  1  0  0  0  0
 25 43  1  0  0  0  0
 25 44  1  0  0  0  0
 25 45  1  0  0  0  0
 26 27  1  0  0  0  0
 26 30  1  0  0  0  0
 27 28  2  0  0  0  0
 28 29  1  0  0  0  0
 28 46  1  0  0  0  0
 29 30  2  0  0  0  0
M  END
$$$$
