p38a_2m
 OpenBabel02232411163D
Structure written by MMmdl.
 50 54  0  0  0  0  0  0  0  0999 V2000
   36.3680   36.0490   15.8170 C   0  0  0  0  0  0  0  0  0  0  0  0
   34.5070   35.0330   21.2850 C   0  0  0  0  0  0  0  0  0  0  0  0
   35.7490   35.5680   16.9670 C   0  0  0  0  0  0  0  0  0  0  0  0
   33.7460   39.1580   23.7050 C   0  0  0  0  0  0  0  0  0  0  0  0
   34.7350   37.8950   21.4570 C   0  0  0  0  0  0  0  0  0  0  0  0
   35.2890   37.2130   20.3180 C   0  0  0  0  0  0  0  0  0  0  0  0
   37.6590   36.5700   15.9760 C   0  0  0  0  0  0  0  0  0  0  0  0
   38.3360   36.5920   17.1980 C   0  0  0  0  0  0  0  0  0  0  0  0
   37.6780   36.1340   18.3460 C   0  0  0  0  0  0  0  0  0  0  0  0
   34.1730   37.1590   22.5410 C   0  0  0  0  0  0  0  0  0  0  0  0
   34.7410   39.3100   21.5790 C   0  0  0  0  0  0  0  0  0  0  0  0
   35.2010   35.8660   20.2630 C   0  0  0  0  0  0  0  0  0  0  0  0
   36.3840   35.6230   18.2250 C   0  0  0  0  0  0  0  0  0  0  0  0
   34.5390   35.0290   16.9040 F   0  0  0  0  0  0  0  0  0  0  0  0
   35.7010   35.0100   19.2830 O   0  0  0  0  0  0  0  0  0  0  0  0
   34.2800   39.9490   22.6620 N   0  0  0  0  0  0  0  0  0  0  0  0
   34.2630   33.8540   21.1740 O   0  0  0  0  0  0  0  0  0  0  0  0
   34.1040   35.7540   22.4690 N   0  0  0  0  0  0  0  0  0  0  0  0
   33.6770   37.7810   23.6610 N   0  0  0  0  0  0  0  0  0  0  0  0
   33.2310   39.8720   24.7650 N   0  0  0  0  0  0  0  0  0  0  0  0
   35.8690   36.0430   14.8450 H   0  0  0  0  0  0  0  0  0  0  0  0
   35.7690   37.8140   19.5420 H   0  0  0  0  0  0  0  0  0  0  0  0
   39.3530   36.9860   17.2700 H   0  0  0  0  0  0  0  0  0  0  0  0
   38.1730   36.2030   19.3170 H   0  0  0  0  0  0  0  0  0  0  0  0
   35.1390   39.9300   20.7590 H   0  0  0  0  0  0  0  0  0  0  0  0
   33.4590   40.8880   24.8120 H   0  0  0  0  0  0  0  0  0  0  0  0
   38.2530   37.1020   14.9100 F   0  0  0  0  0  0  0  0  0  0  0  0
   33.2900   38.1650   28.2210 C   0  0  0  0  0  0  0  0  0  0  0  0
   33.8520   38.6140   26.8650 C   0  0  0  0  0  0  0  0  0  0  0  0
   32.7480   39.3430   26.0740 C   0  0  0  0  0  0  0  0  0  0  0  0
   31.5060   38.4440   25.9320 C   0  0  0  0  0  0  0  0  0  0  0  0
   31.0470   37.9920   27.3250 C   0  0  0  0  0  0  0  0  0  0  0  0
   32.1080   37.3500   28.0680 O   0  0  0  0  0  0  0  0  0  0  0  0
   33.0440   39.0440   28.8610 H   0  0  0  0  0  0  0  0  0  0  0  0
   33.9920   37.4700   28.7370 H   0  0  0  0  0  0  0  0  0  0  0  0
   34.2090   37.7210   26.2960 H   0  0  0  0  0  0  0  0  0  0  0  0
   34.7200   39.2960   27.0310 H   0  0  0  0  0  0  0  0  0  0  0  0
   32.4530   40.2750   26.6460 H   0  0  0  0  0  0  0  0  0  0  0  0
   30.6830   39.0070   25.4320 H   0  0  0  0  0  0  0  0  0  0  0  0
   31.7500   37.5460   25.3120 H   0  0  0  0  0  0  0  0  0  0  0  0
   30.6650   38.8490   27.9230 H   0  0  0  0  0  0  0  0  0  0  0  0
   30.2910   37.1770   27.2550 H   0  0  0  0  0  0  0  0  0  0  0  0
   33.6050   35.0040   23.6420 C   0  0  0  0  0  0  0  0  0  0  0  0
   34.4350   35.0010   24.9230 C   0  0  0  0  0  0  0  0  0  0  0  0
   34.3210   33.7380   24.0960 C   0  0  0  0  0  0  0  0  0  0  0  0
   32.5040   35.0650   23.7230 H   0  0  0  0  0  0  0  0  0  0  0  0
   35.3920   35.5330   24.9630 H   0  0  0  0  0  0  0  0  0  0  0  0
   33.8950   35.0700   25.8800 H   0  0  0  0  0  0  0  0  0  0  0  0
   35.2120   33.3720   23.5740 H   0  0  0  0  0  0  0  0  0  0  0  0
   33.6970   32.9120   24.4750 H   0  0  0  0  0  0  0  0  0  0  0  0
  1  3  2  0  0  0  0
  1  7  1  0  0  0  0
  1 21  1  0  0  0  0
  2 12  1  0  0  0  0
  2 17  2  0  0  0  0
  2 18  1  0  0  0  0
  3 13  1  0  0  0  0
  3 14  1  0  0  0  0
  4 16  2  0  0  0  0
  4 19  1  0  0  0  0
  4 20  1  0  0  0  0
  5  6  1  0  0  0  0
  5 10  1  0  0  0  0
  5 11  2  0  0  0  0
  6 12  2  0  0  0  0
  6 22  1  0  0  0  0
  7  8  2  0  0  0  0
  7 27  1  0  0  0  0
  8  9  1  0  0  0  0
  8 23  1  0  0  0  0
  9 13  2  0  0  0  0
  9 24  1  0  0  0  0
 10 18  1  0  0  0  0
 10 19  2  0  0  0  0
 11 16  1  0  0  0  0
 11 25  1  0  0  0  0
 12 15  1  0  0  0  0
 13 15  1  0  0  0  0
 18 43  1  0  0  0  0
 20 26  1  0  0  0  0
 20 30  1  0  0  0  0
 28 29  1  0  0  0  0
 28 33  1  0  0  0  0
 28 34  1  0  0  0  0
 28 35  1  0  0  0  0
 29 30  1  0  0  0  0
 29 36  1  0  0  0  0
 29 37  1  0  0  0  0
 30 31  1  0  0  0  0
 30 38  1  0  0  0  0
 31 32  1  0  0  0  0
 31 39  1  0  0  0  0
 31 40  1  0  0  0  0
 32 33  1  0  0  0  0
 32 41  1  0  0  0  0
 32 42  1  0  0  0  0
 43 44  1  0  0  0  0
 43 45  1  0  0  0  0
 43 46  1  0  0  0  0
 44 45  1  0  0  0  0
 44 47  1  0  0  0  0
 44 48  1  0  0  0  0
 45 49  1  0  0  0  0
 45 50  1  0  0  0  0
M  END
$$$$
