17124-1 flip
                    3D
 Schrodinger Suite 2022-3.
 46 47  0  0  1  0  0  0  0  0999 V2000
   25.3190    2.8040   31.7470 C   0  0  0  0  0  0  0  0  0  0  0  0
   23.9980    2.9930   31.3140 C   0  0  0  0  0  0  0  0  0  0  0  0
   23.6390    4.0850   30.4830 C   0  0  0  0  0  0  0  0  0  0  0  0
   24.6460    4.9580   30.0580 C   0  0  0  0  0  0  0  0  0  0  0  0
   25.9680    4.7810   30.4940 C   0  0  0  0  0  0  0  0  0  0  0  0
   26.2980    3.7070   31.3470 C   0  0  0  0  0  0  0  0  0  0  0  0
   22.2120    4.2530   30.0500 C   0  0  0  0  0  0  0  0  0  0  0  0
   21.3900    5.1840   30.9320 C   0  0  0  0  0  0  0  0  0  0  0  0
   21.8980    6.5080   30.9710 N   0  0  0  0  0  0  0  0  0  0  0  0
   21.3010    7.6550   31.5420 C   0  0  0  0  0  0  0  0  0  0  0  0
   20.3630    4.8640   31.4880 O   0  0  0  0  0  0  0  0  0  0  0  0
   22.0270    8.7960   31.2280 N   0  0  0  0  0  0  0  0  0  0  0  0
   21.5400    9.9860   31.6450 C   0  0  0  0  0  0  0  0  0  0  0  0
   20.3510   10.1430   32.4180 C   0  0  0  0  0  0  0  0  0  0  0  0
   19.6410    8.9450   32.7510 C   0  0  0  0  0  0  0  0  0  0  0  0
   20.1350    7.6910   32.2990 C   0  0  0  0  0  0  0  0  0  0  0  0
   27.0490    5.5540   30.1400 O   0  0  0  0  0  0  0  0  0  0  0  0
   26.7900    6.8140   29.4680 C   0  0  0  0  0  0  0  0  0  0  0  0
   22.9350    2.1780   31.6380 O   0  0  0  0  0  0  0  0  0  0  0  0
   23.2290    0.9230   32.3050 C   0  0  0  0  0  0  0  0  0  0  0  0
   18.4800    8.9960   33.4800 N   0  0  0  0  0  0  0  0  0  0  0  0
   19.9360   11.4430   32.7770 C   0  0  0  0  0  0  0  0  0  0  0  0
   22.1810   11.1280   31.3110 O   0  0  0  0  0  0  0  0  0  0  0  0
   23.4580   11.0550   30.5710 C   0  0  0  0  0  0  0  0  0  0  0  0
   23.2140   10.8120   29.0970 C   0  0  0  0  0  0  0  0  0  0  0  0
   28.0830    3.4600   31.9540 Br  0  0  0  0  0  0  0  0  0  0  0  0
   19.6500   12.5380   33.0320 N   0  0  0  0  0  0  0  0  0  0  0  0
   25.5870    1.9570   32.3910 H   0  0  0  0  0  0  0  0  0  0  0  0
   24.4080    5.7680   29.3650 H   0  0  0  0  0  0  0  0  0  0  0  0
   19.5850    6.7790   32.5350 H   0  0  0  0  0  0  0  0  0  0  0  0
   21.7150    3.2400   30.0680 H   0  0  0  0  0  0  0  0  0  0  0  0
   22.1730    4.6540   29.0040 H   0  0  0  0  0  0  0  0  0  0  0  0
   22.7890    6.7030   30.4730 H   0  0  0  0  0  0  0  0  0  0  0  0
   26.4110    6.6280   28.4410 H   0  0  0  0  0  0  0  0  0  0  0  0
   26.1000    7.4450   30.0690 H   0  0  0  0  0  0  0  0  0  0  0  0
   27.8120    7.2650   29.4400 H   0  0  0  0  0  0  0  0  0  0  0  0
   23.8600    0.2870   31.6480 H   0  0  0  0  0  0  0  0  0  0  0  0
   22.2040    0.5040   32.4280 H   0  0  0  0  0  0  0  0  0  0  0  0
   23.7020    1.1080   33.2930 H   0  0  0  0  0  0  0  0  0  0  0  0
   17.9910    8.1280   33.7720 H   0  0  0  0  0  0  0  0  0  0  0  0
   18.0840    9.8850   33.7850 H   0  0  0  0  0  0  0  0  0  0  0  0
   24.1080   10.2730   31.0260 H   0  0  0  0  0  0  0  0  0  0  0  0
   23.8370   12.0870   30.7700 H   0  0  0  0  0  0  0  0  0  0  0  0
   24.1790   10.9230   28.5420 H   0  0  0  0  0  0  0  0  0  0  0  0
   22.8310    9.7800   28.9140 H   0  0  0  0  0  0  0  0  0  0  0  0
   22.4890   11.5440   28.6780 H   0  0  0  0  0  0  0  0  0  0  0  0
  1  2  1  0  0  0  0
  1  6  2  0  0  0  0
  1 28  1  0  0  0  0
  2  3  2  0  0  0  0
  2 19  1  0  0  0  0
  3  4  1  0  0  0  0
  3  7  1  0  0  0  0
  4  5  2  0  0  0  0
  4 29  1  0  0  0  0
  5  6  1  0  0  0  0
  5 17  1  0  0  0  0
  6 26  1  0  0  0  0
  7  8  1  0  0  0  0
  7 31  1  0  0  0  0
  7 32  1  0  0  0  0
  8  9  1  0  0  0  0
  8 11  2  0  0  0  0
  9 10  1  0  0  0  0
  9 33  1  0  0  0  0
 10 12  1  0  0  0  0
 10 16  2  0  0  0  0
 12 13  2  0  0  0  0
 13 14  1  0  0  0  0
 13 23  1  0  0  0  0
 14 15  2  0  0  0  0
 14 22  1  0  0  0  0
 15 16  1  0  0  0  0
 15 21  1  0  0  0  0
 16 30  1  0  0  0  0
 17 18  1  0  0  0  0
 18 34  1  0  0  0  0
 18 35  1  0  0  0  0
 18 36  1  0  0  0  0
 19 20  1  0  0  0  0
 20 37  1  0  0  0  0
 20 38  1  0  0  0  0
 20 39  1  0  0  0  0
 21 40  1  0  0  0  0
 21 41  1  0  0  0  0
 22 27  3  0  0  0  0
 23 24  1  0  0  0  0
 24 25  1  0  0  0  0
 24 42  1  0  0  0  0
 24 43  1  0  0  0  0
 25 44  1  0  0  0  0
 25 45  1  0  0  0  0
 25 46  1  0  0  0  0
M  END
$$$$
