18634-1
 OpenBabel02232411163D
Structure written by MMmdl.
 46 47  0  0  0  0  0  0  0  0999 V2000
   23.8590   12.5930   30.3320 C   0  0  0  0  0  0  0  0  0  0  0  0
   23.4250   11.1450   30.4660 C   0  0  0  0  0  0  0  0  0  0  0  0
   22.1690   11.2450   31.2500 O   0  0  0  0  0  0  0  0  0  0  0  0
   21.5280   10.1050   31.5880 C   0  0  0  0  0  0  0  0  0  0  0  0
   22.0020    8.9170   31.1460 N   0  0  0  0  0  0  0  0  0  0  0  0
   21.2690    7.7800   31.4600 C   0  0  0  0  0  0  0  0  0  0  0  0
   20.1120    7.8220   32.2340 C   0  0  0  0  0  0  0  0  0  0  0  0
   19.6310    9.0730   32.7030 C   0  0  0  0  0  0  0  0  0  0  0  0
   18.4860    9.1230   33.4580 N   0  0  0  0  0  0  0  0  0  0  0  0
   20.3420   10.2690   32.3640 C   0  0  0  0  0  0  0  0  0  0  0  0
   19.9230   11.5700   32.7130 C   0  0  0  0  0  0  0  0  0  0  0  0
   19.6220   12.6630   32.9570 N   0  0  0  0  0  0  0  0  0  0  0  0
   21.8320    6.6200   30.8870 N   0  0  0  0  0  0  0  0  0  0  0  0
   21.2620    5.3250   30.8550 C   0  0  0  0  0  0  0  0  0  0  0  0
   20.2000    5.0620   31.3770 O   0  0  0  0  0  0  0  0  0  0  0  0
   22.0770    4.3270   30.0420 C   0  0  0  0  0  0  0  0  0  0  0  0
   23.4150    4.0330   30.6550 C   0  0  0  0  0  0  0  0  0  0  0  0
   24.5360    4.8680   30.3740 C   0  0  0  0  0  0  0  0  0  0  0  0
   24.2310    5.9080   29.5020 O   0  0  0  0  0  0  0  0  0  0  0  0
   25.2280    6.9510   29.3350 C   0  0  0  0  0  0  0  0  0  0  0  0
   25.7900    4.6180   30.9190 C   0  0  0  0  0  0  0  0  0  0  0  0
   25.9660    3.5250   31.7810 C   0  0  0  0  0  0  0  0  0  0  0  0
   24.8750    2.7040   32.0610 C   0  0  0  0  0  0  0  0  0  0  0  0
   23.6000    2.9400   31.4900 C   0  0  0  0  0  0  0  0  0  0  0  0
   24.8800    1.6010   32.8900 O   0  0  0  0  0  0  0  0  0  0  0  0
   26.1300    1.2560   33.5400 C   0  0  0  0  0  0  0  0  0  0  0  0
   24.0540   13.0520   31.3270 H   0  0  0  0  0  0  0  0  0  0  0  0
   23.0840   13.1960   29.8040 H   0  0  0  0  0  0  0  0  0  0  0  0
   24.8000   12.6310   29.7280 H   0  0  0  0  0  0  0  0  0  0  0  0
   23.1780   10.6830   29.4840 H   0  0  0  0  0  0  0  0  0  0  0  0
   24.1500   10.5320   31.0460 H   0  0  0  0  0  0  0  0  0  0  0  0
   19.5580    6.9120   32.4730 H   0  0  0  0  0  0  0  0  0  0  0  0
   18.0930   10.0110   33.7680 H   0  0  0  0  0  0  0  0  0  0  0  0
   17.9800    8.2560   33.7240 H   0  0  0  0  0  0  0  0  0  0  0  0
   22.7510    6.7640   30.3960 H   0  0  0  0  0  0  0  0  0  0  0  0
   21.4880    3.3780   29.9460 H   0  0  0  0  0  0  0  0  0  0  0  0
   22.2310    4.7540   29.0130 H   0  0  0  0  0  0  0  0  0  0  0  0
   26.1030    6.5430   28.7860 H   0  0  0  0  0  0  0  0  0  0  0  0
   24.6720    7.6960   28.7210 H   0  0  0  0  0  0  0  0  0  0  0  0
   25.5160    7.3760   30.3200 H   0  0  0  0  0  0  0  0  0  0  0  0
   26.6540    5.2470   30.6920 H   0  0  0  0  0  0  0  0  0  0  0  0
   26.9570    3.3480   32.2020 H   0  0  0  0  0  0  0  0  0  0  0  0
   22.7850    2.2480   31.7170 H   0  0  0  0  0  0  0  0  0  0  0  0
   26.9040    1.0090   32.7810 H   0  0  0  0  0  0  0  0  0  0  0  0
   26.4570    2.0820   34.2090 H   0  0  0  0  0  0  0  0  0  0  0  0
   25.8410    0.3530   34.1270 H   0  0  0  0  0  0  0  0  0  0  0  0
  1  2  1  0  0  0  0
  1 27  1  0  0  0  0
  1 28  1  0  0  0  0
  1 29  1  0  0  0  0
  2  3  1  0  0  0  0
  2 30  1  0  0  0  0
  2 31  1  0  0  0  0
  3  4  1  0  0  0  0
  4 10  2  0  0  0  0
  4  5  1  0  0  0  0
  5  6  2  0  0  0  0
  6  7  1  0  0  0  0
  6 13  1  0  0  0  0
  7  8  2  0  0  0  0
  7 32  1  0  0  0  0
  8  9  1  0  0  0  0
  8 10  1  0  0  0  0
  9 33  1  0  0  0  0
  9 34  1  0  0  0  0
 10 11  1  0  0  0  0
 11 12  3  0  0  0  0
 13 14  1  0  0  0  0
 13 35  1  0  0  0  0
 14 15  2  0  0  0  0
 14 16  1  0  0  0  0
 16 17  1  0  0  0  0
 16 36  1  0  0  0  0
 16 37  1  0  0  0  0
 17 24  2  0  0  0  0
 17 18  1  0  0  0  0
 18 19  1  0  0  0  0
 18 21  2  0  0  0  0
 19 20  1  0  0  0  0
 20 38  1  0  0  0  0
 20 39  1  0  0  0  0
 20 40  1  0  0  0  0
 21 22  1  0  0  0  0
 21 41  1  0  0  0  0
 22 23  2  0  0  0  0
 22 42  1  0  0  0  0
 23 24  1  0  0  0  0
 23 25  1  0  0  0  0
 24 43  1  0  0  0  0
 25 26  1  0  0  0  0
 26 44  1  0  0  0  0
 26 45  1  0  0  0  0
 26 46  1  0  0  0  0
M  END
$$$$
