56
 OpenBabel02232411163D
Structure written by MMmdl.
 47 49  0  0  0  0  0  0  0  0999 V2000
    3.7730  -50.0310    5.6530 O   0  0  0  0  0  0  0  0  0  0  0  0
    3.1040  -49.3160    6.4230 C   0  0  0  0  0  0  0  0  0  0  0  0
    3.5320  -48.4360    7.1830 O   0  5  0  0  0  0  0  0  0  0  0  0
    1.5870  -49.5890    6.3990 C   0  0  0  0  0  0  0  0  0  0  0  0
   -0.3390  -50.8220    6.5690 C   0  0  0  0  0  0  0  0  0  0  0  0
   -1.3190  -51.8040    6.7990 C   0  0  0  0  0  0  0  0  0  0  0  0
   -2.6280  -51.4990    6.4580 C   0  0  0  0  0  0  0  0  0  0  0  0
   -2.9680  -50.2440    5.8970 C   0  0  0  0  0  0  0  0  0  0  0  0
   -2.0090  -49.2670    5.6740 C   0  0  0  0  0  0  0  0  0  0  0  0
   -0.6700  -49.5330    6.0110 C   0  0  0  0  0  0  0  0  0  0  0  0
    0.5560  -48.7750    5.9350 C   0  0  0  0  0  0  0  0  0  0  0  0
    0.6330  -47.3660    5.4660 C   0  0  0  0  0  0  0  0  0  0  0  0
    0.5930  -46.3510    6.6240 C   0  0  0  0  0  0  0  0  0  0  0  0
   -0.7260  -46.3520    7.3950 C   0  0  0  0  0  0  0  0  0  0  0  0
   -1.6890  -45.7800    6.4330 O   0  0  0  0  0  0  0  0  0  0  0  0
   -2.9530  -45.5140    6.8520 C   0  0  0  0  0  0  0  0  0  0  0  0
   -3.4920  -45.8770    8.0970 C   0  0  0  0  0  0  0  0  0  0  0  0
   -4.8170  -45.5340    8.3920 C   0  0  0  0  0  0  0  0  0  0  0  0
   -5.4270  -45.8930    9.7070 C   0  0  0  0  0  0  0  0  0  0  0  0
   -5.5700  -44.8470    7.4270 C   0  0  0  0  0  0  0  0  0  0  0  0
   -7.2200  -44.4770    7.7720 Cl  0  0  0  0  0  0  0  0  0  0  0  0
   -5.0420  -44.4780    6.1740 C   0  0  0  0  0  0  0  0  0  0  0  0
   -5.8900  -43.7960    5.1530 C   0  0  0  0  0  0  0  0  0  0  0  0
   -3.7210  -44.8170    5.8920 C   0  0  0  0  0  0  0  0  0  0  0  0
   -1.0720  -52.7730    7.2330 H   0  0  0  0  0  0  0  0  0  0  0  0
   -3.4190  -52.2320    6.6230 H   0  0  0  0  0  0  0  0  0  0  0  0
   -4.0120  -50.0550    5.6430 H   0  0  0  0  0  0  0  0  0  0  0  0
   -2.2970  -48.3060    5.2450 H   0  0  0  0  0  0  0  0  0  0  0  0
   -0.2430  -47.1550    4.7990 H   0  0  0  0  0  0  0  0  0  0  0  0
    1.5700  -47.1920    4.8850 H   0  0  0  0  0  0  0  0  0  0  0  0
    0.7440  -45.3270    6.2090 H   0  0  0  0  0  0  0  0  0  0  0  0
    1.4080  -46.5840    7.3510 H   0  0  0  0  0  0  0  0  0  0  0  0
   -0.6960  -45.6690    8.2700 H   0  0  0  0  0  0  0  0  0  0  0  0
   -1.0880  -47.3710    7.6450 H   0  0  0  0  0  0  0  0  0  0  0  0
   -2.9140  -46.4340    8.8290 H   0  0  0  0  0  0  0  0  0  0  0  0
   -5.8560  -44.9890   10.2020 H   0  0  0  0  0  0  0  0  0  0  0  0
   -6.2600  -46.6220    9.5530 H   0  0  0  0  0  0  0  0  0  0  0  0
   -4.6820  -46.3610   10.3900 H   0  0  0  0  0  0  0  0  0  0  0  0
   -5.2800  -43.4790    4.2740 H   0  0  0  0  0  0  0  0  0  0  0  0
   -6.6850  -44.5010    4.8020 H   0  0  0  0  0  0  0  0  0  0  0  0
   -6.3890  -42.8960    5.5800 H   0  0  0  0  0  0  0  0  0  0  0  0
   -3.2790  -44.5620    4.9350 H   0  0  0  0  0  0  0  0  0  0  0  0
    1.7330  -51.9490    7.4510 C   0  0  0  0  0  0  0  0  0  0  0  0
    1.5070  -52.9180    6.9220 H   0  0  0  0  0  0  0  0  0  0  0  0
    2.8440  -51.8130    7.4720 H   0  0  0  0  0  0  0  0  0  0  0  0
    1.3660  -52.0540    8.5120 H   0  0  0  0  0  0  0  0  0  0  0  0
    1.0520  -50.8330    6.7830 N   0  0  0  0  0  0  0  0  0  0  0  0
  1  2  2  0  0  0  0
  2  3  1  0  0  0  0
  2  4  1  0  0  0  0
  4 11  2  0  0  0  0
  4 47  1  0  0  0  0
  5  6  2  0  0  0  0
  5 10  1  0  0  0  0
  5 47  1  0  0  0  0
  6  7  1  0  0  0  0
  6 25  1  0  0  0  0
  7  8  2  0  0  0  0
  7 26  1  0  0  0  0
  8  9  1  0  0  0  0
  8 27  1  0  0  0  0
  9 10  2  0  0  0  0
  9 28  1  0  0  0  0
 10 11  1  0  0  0  0
 11 12  1  0  0  0  0
 12 29  1  0  0  0  0
 12 30  1  0  0  0  0
 12 13  1  0  0  0  0
 13 14  1  0  0  0  0
 13 31  1  0  0  0  0
 13 32  1  0  0  0  0
 14 15  1  0  0  0  0
 14 33  1  0  0  0  0
 14 34  1  0  0  0  0
 15 16  1  0  0  0  0
 16 17  2  0  0  0  0
 16 24  1  0  0  0  0
 17 18  1  0  0  0  0
 17 35  1  0  0  0  0
 18 19  1  0  0  0  0
 18 20  2  0  0  0  0
 19 36  1  0  0  0  0
 19 37  1  0  0  0  0
 19 38  1  0  0  0  0
 20 21  1  0  0  0  0
 20 22  1  0  0  0  0
 22 23  1  0  0  0  0
 22 24  2  0  0  0  0
 23 39  1  0  0  0  0
 23 40  1  0  0  0  0
 23 41  1  0  0  0  0
 24 42  1  0  0  0  0
 43 44  1  0  0  0  0
 43 45  1  0  0  0  0
 43 46  1  0  0  0  0
 43 47  1  0  0  0  0
M  CHG  1   3  -1
M  END
$$$$
