p38a_2s
 OpenBabel02232411163D
Structure written by MMmdl.
 54 57  0  0  1  0  0  0  0  0999 V2000
   38.2770   36.5400   17.1350 C   0  0  0  0  0  0  0  0  0  0  0  0
   34.6810   35.0270   21.2080 C   0  0  0  0  0  0  0  0  0  0  0  0
   37.4740   36.0750   18.1730 C   0  0  0  0  0  0  0  0  0  0  0  0
   34.0780   39.0500   23.8260 C   0  0  0  0  0  0  0  0  0  0  0  0
   34.7320   37.9000   21.4050 C   0  0  0  0  0  0  0  0  0  0  0  0
   35.0600   37.2740   20.1530 C   0  0  0  0  0  0  0  0  0  0  0  0
   37.6500   36.7160   15.8940 C   0  0  0  0  0  0  0  0  0  0  0  0
   36.3040   36.4270   15.6620 C   0  0  0  0  0  0  0  0  0  0  0  0
   35.5210   35.9480   16.7180 C   0  0  0  0  0  0  0  0  0  0  0  0
   34.4910   37.1020   22.5620 C   0  0  0  0  0  0  0  0  0  0  0  0
   34.6450   39.3100   21.5650 C   0  0  0  0  0  0  0  0  0  0  0  0
   35.0590   35.9230   20.0830 C   0  0  0  0  0  0  0  0  0  0  0  0
   36.1120   35.7640   17.9710 C   0  0  0  0  0  0  0  0  0  0  0  0
   37.9880   35.9240   19.3870 F   0  0  0  0  0  0  0  0  0  0  0  0
   35.3600   35.1350   18.9720 O   0  0  0  0  0  0  0  0  0  0  0  0
   34.3380   39.8970   22.7310 N   0  0  0  0  0  0  0  0  0  0  0  0
   34.4860   33.8360   21.1310 O   0  0  0  0  0  0  0  0  0  0  0  0
   34.5690   35.6980   22.4810 N   0  0  0  0  0  0  0  0  0  0  0  0
   34.1690   37.6710   23.7700 N   0  0  0  0  0  0  0  0  0  0  0  0
   33.6270   39.6350   24.9860 N   0  0  0  0  0  0  0  0  0  0  0  0
   39.3300   36.7920   17.2900 H   0  0  0  0  0  0  0  0  0  0  0  0
   35.3050   37.9140   19.3030 H   0  0  0  0  0  0  0  0  0  0  0  0
   35.8500   36.5860   14.6820 H   0  0  0  0  0  0  0  0  0  0  0  0
   34.4590   35.7360   16.5580 H   0  0  0  0  0  0  0  0  0  0  0  0
   34.8310   39.9740   20.7030 H   0  0  0  0  0  0  0  0  0  0  0  0
   33.7060   40.6670   25.0950 H   0  0  0  0  0  0  0  0  0  0  0  0
   38.3660   37.2250   14.8940 F   0  0  0  0  0  0  0  0  0  0  0  0
   32.2530   38.9100   28.4720 C   0  0  0  0  0  0  0  0  0  0  0  0
   32.3990   39.6110   27.1160 C   0  0  0  0  0  0  0  0  0  0  0  0
   33.4410   38.8670   26.2540 C   0  0  0  0  0  0  0  0  0  0  0  0
   34.7730   38.7240   27.0220 C   0  0  0  0  0  0  0  0  0  0  0  0
   34.5140   38.0690   28.3850 C   0  0  0  0  0  0  0  0  0  0  0  0
   33.5250   38.7960   29.1500 O   0  0  0  0  0  0  0  0  0  0  0  0
   31.8130   37.8930   28.3510 H   0  0  0  0  0  0  0  0  0  0  0  0
   31.6610   39.5290   29.1850 H   0  0  0  0  0  0  0  0  0  0  0  0
   32.7250   40.6680   27.2760 H   0  0  0  0  0  0  0  0  0  0  0  0
   31.4150   39.6250   26.5900 H   0  0  0  0  0  0  0  0  0  0  0  0
   33.0480   37.8440   26.0000 H   0  0  0  0  0  0  0  0  0  0  0  0
   35.4790   38.0840   26.4390 H   0  0  0  0  0  0  0  0  0  0  0  0
   35.2410   39.7270   27.1610 H   0  0  0  0  0  0  0  0  0  0  0  0
   34.1740   37.0150   28.2610 H   0  0  0  0  0  0  0  0  0  0  0  0
   35.4140   38.1320   29.0390 H   0  0  0  0  0  0  0  0  0  0  0  0
   34.4590   34.8750   23.7210 C   0  0  0  0  0  0  0  0  0  0  0  0
   35.1200   33.9700   23.6120 H   0  0  0  0  0  0  0  0  0  0  0  0
   34.8450   35.4790   24.5950 H   0  0  0  0  0  0  0  0  0  0  0  0
   33.0150   34.3980   24.0080 C   0  0  2  0  0  0  0  0  0  0  0  0
   32.0680   35.4650   23.9620 O   0  0  0  0  0  0  0  0  0  0  0  0
   32.4810   36.2940   24.3150 H   0  0  0  0  0  0  0  0  0  0  0  0
   32.9290   33.7020   25.3930 C   0  0  0  0  0  0  0  0  0  0  0  0
   32.0390   34.0760   25.9570 H   0  0  0  0  0  0  0  0  0  0  0  0
   33.8510   33.8190   26.0060 H   0  0  0  0  0  0  0  0  0  0  0  0
   32.6470   33.6960   23.2180 H   0  0  0  0  0  0  0  0  0  0  0  0
   32.6500   32.3080   25.1880 O   0  0  0  0  0  0  0  0  0  0  0  0
   33.5310   31.8410   24.9810 H   0  0  0  0  0  0  0  0  0  0  0  0
  1  3  2  0  0  0  0
  1  7  1  0  0  0  0
  1 21  1  0  0  0  0
  2 12  1  0  0  0  0
  2 17  2  0  0  0  0
  2 18  1  0  0  0  0
  3 13  1  0  0  0  0
  3 14  1  0  0  0  0
  4 16  2  0  0  0  0
  4 19  1  0  0  0  0
  4 20  1  0  0  0  0
  5  6  1  0  0  0  0
  5 10  1  0  0  0  0
  5 11  2  0  0  0  0
  6 12  2  0  0  0  0
  6 22  1  0  0  0  0
  7  8  2  0  0  0  0
  7 27  1  0  0  0  0
  8  9  1  0  0  0  0
  8 23  1  0  0  0  0
  9 13  2  0  0  0  0
  9 24  1  0  0  0  0
 10 18  1  0  0  0  0
 10 19  2  0  0  0  0
 11 16  1  0  0  0  0
 11 25  1  0  0  0  0
 12 15  1  0  0  0  0
 13 15  1  0  0  0  0
 18 43  1  0  0  0  0
 20 26  1  0  0  0  0
 20 30  1  0  0  0  0
 28 29  1  0  0  0  0
 28 33  1  0  0  0  0
 28 34  1  0  0  0  0
 28 35  1  0  0  0  0
 29 30  1  0  0  0  0
 29 36  1  0  0  0  0
 29 37  1  0  0  0  0
 30 31  1  0  0  0  0
 30 38  1  0  0  0  0
 31 32  1  0  0  0  0
 31 39  1  0  0  0  0
 31 40  1  0  0  0  0
 32 33  1  0  0  0  0
 32 41  1  0  0  0  0
 32 42  1  0  0  0  0
 43 44  1  0  0  0  0
 43 45  1  0  0  0  0
 43 46  1  0  0  0  0
 46 47  1  0  0  0  0
 46 49  1  0  0  0  0
 46 52  1  1  0  0  0
 47 48  1  0  0  0  0
 49 50  1  0  0  0  0
 49 51  1  0  0  0  0
 49 53  1  0  0  0  0
 53 54  1  0  0  0  0
M  END
$$$$
