p38a_3flz
 OpenBabel02232411163D
Structure written by MMmdl.
 46 49  0  0  0  0  0  0  0  0999 V2000
   35.2760   35.2410   18.6860 O   0  0  0  0  0  0  0  0  0  0  0  0
   35.0690   37.3170   19.9640 C   0  0  0  0  0  0  0  0  0  0  0  0
   34.5590   37.0870   22.3830 C   0  0  0  0  0  0  0  0  0  0  0  0
   34.7820   37.9100   21.2400 C   0  0  0  0  0  0  0  0  0  0  0  0
   34.7090   39.3160   21.4340 C   0  0  0  0  0  0  0  0  0  0  0  0
   34.2610   39.0040   23.7250 C   0  0  0  0  0  0  0  0  0  0  0  0
   35.0540   35.9670   19.8510 C   0  0  0  0  0  0  0  0  0  0  0  0
   36.2290   35.7920   17.8040 C   0  0  0  0  0  0  0  0  0  0  0  0
   34.4460   34.8170   23.4500 C   0  0  0  0  0  0  0  0  0  0  0  0
   31.9320   39.6020   26.1760 C   0  0  0  0  0  0  0  0  0  0  0  0
   37.5450   36.0350   18.2140 C   0  0  0  0  0  0  0  0  0  0  0  0
   38.0550   36.6550   15.9240 C   0  0  0  0  0  0  0  0  0  0  0  0
   38.4620   36.4600   17.2490 C   0  0  0  0  0  0  0  0  0  0  0  0
   36.7320   36.4040   15.5460 C   0  0  0  0  0  0  0  0  0  0  0  0
   34.5400   33.8520   20.8690 O   0  0  0  0  0  0  0  0  0  0  0  0
   34.7060   35.0480   20.9630 C   0  0  0  0  0  0  0  0  0  0  0  0
   35.7980   35.9590   16.4850 C   0  0  0  0  0  0  0  0  0  0  0  0
   34.4540   39.8720   22.6250 N   0  0  0  0  0  0  0  0  0  0  0  0
   34.5750   35.6890   22.2500 N   0  0  0  0  0  0  0  0  0  0  0  0
   34.3050   37.6320   23.6210 N   0  0  0  0  0  0  0  0  0  0  0  0
   34.1130   39.6360   24.9460 N   0  0  0  0  0  0  0  0  0  0  0  0
   33.4090   39.1450   26.1760 C   0  0  0  0  0  0  0  0  0  0  0  0
   33.5170   37.6470   26.4970 C   0  0  0  0  0  0  0  0  0  0  0  0
   32.4380   36.7570   25.8660 C   0  0  0  0  0  0  0  0  0  0  0  0
   31.1100   37.3250   25.9100 O   0  0  0  0  0  0  0  0  0  0  0  0
   31.0420   38.6580   25.3680 C   0  0  0  0  0  0  0  0  0  0  0  0
   35.3000   37.9770   19.1260 H   0  0  0  0  0  0  0  0  0  0  0  0
   34.8470   39.9960   20.5780 H   0  0  0  0  0  0  0  0  0  0  0  0
   34.9500   33.8330   23.2610 H   0  0  0  0  0  0  0  0  0  0  0  0
   34.9330   35.3010   24.3390 H   0  0  0  0  0  0  0  0  0  0  0  0
   33.3630   34.6340   23.6810 H   0  0  0  0  0  0  0  0  0  0  0  0
   31.5930   39.6180   27.2410 H   0  0  0  0  0  0  0  0  0  0  0  0
   31.8380   40.6380   25.7760 H   0  0  0  0  0  0  0  0  0  0  0  0
   37.8460   35.9360   19.2550 H   0  0  0  0  0  0  0  0  0  0  0  0
   38.7620   37.0340   15.1900 H   0  0  0  0  0  0  0  0  0  0  0  0
   39.4940   36.6720   17.5350 H   0  0  0  0  0  0  0  0  0  0  0  0
   36.4150   36.5830   14.5180 H   0  0  0  0  0  0  0  0  0  0  0  0
   34.7610   35.7820   16.1940 H   0  0  0  0  0  0  0  0  0  0  0  0
   34.0700   40.6840   24.9110 H   0  0  0  0  0  0  0  0  0  0  0  0
   33.9480   39.7120   27.0020 H   0  0  0  0  0  0  0  0  0  0  0  0
   34.5250   37.2640   26.1910 H   0  0  0  0  0  0  0  0  0  0  0  0
   33.4570   37.5550   27.6140 H   0  0  0  0  0  0  0  0  0  0  0  0
   32.6650   36.5380   24.8000 H   0  0  0  0  0  0  0  0  0  0  0  0
   32.3100   35.8210   26.4610 H   0  0  0  0  0  0  0  0  0  0  0  0
   29.9690   38.9190   25.4900 H   0  0  0  0  0  0  0  0  0  0  0  0
   31.3430   38.6400   24.2980 H   0  0  0  0  0  0  0  0  0  0  0  0
  1  7  1  0  0  0  0
  1  8  1  0  0  0  0
  2  4  1  0  0  0  0
  2  7  2  0  0  0  0
  2 27  1  0  0  0  0
  3  4  2  0  0  0  0
  3 19  1  0  0  0  0
  3 20  1  0  0  0  0
  4  5  1  0  0  0  0
  5 18  2  0  0  0  0
  5 28  1  0  0  0  0
  6 18  1  0  0  0  0
  6 20  2  0  0  0  0
  6 21  1  0  0  0  0
  7 16  1  0  0  0  0
  8 11  2  0  0  0  0
  8 17  1  0  0  0  0
  9 19  1  0  0  0  0
  9 29  1  0  0  0  0
  9 30  1  0  0  0  0
  9 31  1  0  0  0  0
 10 22  1  0  0  0  0
 10 26  1  0  0  0  0
 10 32  1  0  0  0  0
 10 33  1  0  0  0  0
 11 13  1  0  0  0  0
 11 34  1  0  0  0  0
 12 13  2  0  0  0  0
 12 14  1  0  0  0  0
 12 35  1  0  0  0  0
 13 36  1  0  0  0  0
 14 17  2  0  0  0  0
 14 37  1  0  0  0  0
 15 16  2  0  0  0  0
 16 19  1  0  0  0  0
 17 38  1  0  0  0  0
 21 22  1  0  0  0  0
 21 39  1  0  0  0  0
 22 23  1  0  0  0  0
 22 40  1  0  0  0  0
 23 24  1  0  0  0  0
 23 41  1  0  0  0  0
 23 42  1  0  0  0  0
 24 25  1  0  0  0  0
 24 43  1  0  0  0  0
 24 44  1  0  0  0  0
 25 26  1  0  0  0  0
 26 45  1  0  0  0  0
 26 46  1  0  0  0  0
M  END
$$$$
