p38a_2m
 OpenBabel02232411163D
Structure written by MMmdl.
 50 54  0  0  0  0  0  0  0  0999 V2000
   36.3650   36.0500   15.8200 C   0  0  0  0  0  0  0  0  0  0  0  0
   34.5130   35.0380   21.2990 C   0  0  0  0  0  0  0  0  0  0  0  0
   35.7390   35.5710   16.9670 C   0  0  0  0  0  0  0  0  0  0  0  0
   33.7520   39.1650   23.7120 C   0  0  0  0  0  0  0  0  0  0  0  0
   34.7310   37.9010   21.4610 C   0  0  0  0  0  0  0  0  0  0  0  0
   35.2760   37.2180   20.3180 C   0  0  0  0  0  0  0  0  0  0  0  0
   37.6580   36.5640   15.9820 C   0  0  0  0  0  0  0  0  0  0  0  0
   38.3310   36.5830   17.2070 C   0  0  0  0  0  0  0  0  0  0  0  0
   37.6670   36.1290   18.3520 C   0  0  0  0  0  0  0  0  0  0  0  0
   34.1850   37.1650   22.5530 C   0  0  0  0  0  0  0  0  0  0  0  0
   34.7320   39.3170   21.5800 C   0  0  0  0  0  0  0  0  0  0  0  0
   35.1920   35.8700   20.2670 C   0  0  0  0  0  0  0  0  0  0  0  0
   36.3700   35.6230   18.2270 C   0  0  0  0  0  0  0  0  0  0  0  0
   34.5270   35.0370   16.9000 F   0  0  0  0  0  0  0  0  0  0  0  0
   35.6810   35.0130   19.2830 O   0  0  0  0  0  0  0  0  0  0  0  0
   34.2750   39.9560   22.6640 N   0  0  0  0  0  0  0  0  0  0  0  0
   34.2700   33.8580   21.1930 O   0  0  0  0  0  0  0  0  0  0  0  0
   34.1240   35.7590   22.4870 N   0  0  0  0  0  0  0  0  0  0  0  0
   33.6930   37.7880   23.6750 N   0  0  0  0  0  0  0  0  0  0  0  0
   33.2350   39.8790   24.7710 N   0  0  0  0  0  0  0  0  0  0  0  0
   35.8680   36.0470   14.8470 H   0  0  0  0  0  0  0  0  0  0  0  0
   35.7460   37.8190   19.5360 H   0  0  0  0  0  0  0  0  0  0  0  0
   39.3490   36.9730   17.2820 H   0  0  0  0  0  0  0  0  0  0  0  0
   38.1590   36.1950   19.3250 H   0  0  0  0  0  0  0  0  0  0  0  0
   35.1220   39.9360   20.7560 H   0  0  0  0  0  0  0  0  0  0  0  0
   33.4620   40.8950   24.8180 H   0  0  0  0  0  0  0  0  0  0  0  0
   38.2570   37.0930   14.9180 F   0  0  0  0  0  0  0  0  0  0  0  0
   33.2980   38.1820   28.2320 C   0  0  0  0  0  0  0  0  0  0  0  0
   33.8600   38.6290   26.8760 C   0  0  0  0  0  0  0  0  0  0  0  0
   32.7540   39.3510   26.0820 C   0  0  0  0  0  0  0  0  0  0  0  0
   31.5160   38.4460   25.9410 C   0  0  0  0  0  0  0  0  0  0  0  0
   31.0570   37.9950   27.3340 C   0  0  0  0  0  0  0  0  0  0  0  0
   32.1210   37.3600   28.0800 O   0  0  0  0  0  0  0  0  0  0  0  0
   33.0460   39.0620   28.8690 H   0  0  0  0  0  0  0  0  0  0  0  0
   34.0030   37.4920   28.7520 H   0  0  0  0  0  0  0  0  0  0  0  0
   34.2230   37.7370   26.3100 H   0  0  0  0  0  0  0  0  0  0  0  0
   34.7240   39.3170   27.0420 H   0  0  0  0  0  0  0  0  0  0  0  0
   32.4530   40.2840   26.6510 H   0  0  0  0  0  0  0  0  0  0  0  0
   30.6910   39.0050   25.4390 H   0  0  0  0  0  0  0  0  0  0  0  0
   31.7650   37.5480   25.3230 H   0  0  0  0  0  0  0  0  0  0  0  0
   30.6700   38.8510   27.9300 H   0  0  0  0  0  0  0  0  0  0  0  0
   30.3060   37.1750   27.2640 H   0  0  0  0  0  0  0  0  0  0  0  0
   33.6580   35.0110   23.6740 C   0  0  0  0  0  0  0  0  0  0  0  0
   34.5210   35.0180   24.9340 C   0  0  0  0  0  0  0  0  0  0  0  0
   34.3910   33.7500   24.1150 C   0  0  0  0  0  0  0  0  0  0  0  0
   32.5580   35.0680   23.7840 H   0  0  0  0  0  0  0  0  0  0  0  0
   35.4750   35.5560   24.9440 H   0  0  0  0  0  0  0  0  0  0  0  0
   34.0070   35.0870   25.9040 H   0  0  0  0  0  0  0  0  0  0  0  0
   35.2700   33.3870   23.5710 H   0  0  0  0  0  0  0  0  0  0  0  0
   33.7820   32.9240   24.5140 H   0  0  0  0  0  0  0  0  0  0  0  0
  1  3  2  0  0  0  0
  1  7  1  0  0  0  0
  1 21  1  0  0  0  0
  2 12  1  0  0  0  0
  2 17  2  0  0  0  0
  2 18  1  0  0  0  0
  3 13  1  0  0  0  0
  3 14  1  0  0  0  0
  4 16  2  0  0  0  0
  4 19  1  0  0  0  0
  4 20  1  0  0  0  0
  5  6  1  0  0  0  0
  5 10  1  0  0  0  0
  5 11  2  0  0  0  0
  6 12  2  0  0  0  0
  6 22  1  0  0  0  0
  7  8  2  0  0  0  0
  7 27  1  0  0  0  0
  8  9  1  0  0  0  0
  8 23  1  0  0  0  0
  9 13  2  0  0  0  0
  9 24  1  0  0  0  0
 10 18  1  0  0  0  0
 10 19  2  0  0  0  0
 11 16  1  0  0  0  0
 11 25  1  0  0  0  0
 12 15  1  0  0  0  0
 13 15  1  0  0  0  0
 18 43  1  0  0  0  0
 20 26  1  0  0  0  0
 20 30  1  0  0  0  0
 28 29  1  0  0  0  0
 28 33  1  0  0  0  0
 28 34  1  0  0  0  0
 28 35  1  0  0  0  0
 29 30  1  0  0  0  0
 29 36  1  0  0  0  0
 29 37  1  0  0  0  0
 30 31  1  0  0  0  0
 30 38  1  0  0  0  0
 31 32  1  0  0  0  0
 31 39  1  0  0  0  0
 31 40  1  0  0  0  0
 32 33  1  0  0  0  0
 32 41  1  0  0  0  0
 32 42  1  0  0  0  0
 43 44  1  0  0  0  0
 43 45  1  0  0  0  0
 43 46  1  0  0  0  0
 44 45  1  0  0  0  0
 44 47  1  0  0  0  0
 44 48  1  0  0  0  0
 45 49  1  0  0  0  0
 45 50  1  0  0  0  0
M  END
$$$$
