18629-1
 OpenBabel02232411163D
Structure written by MMmdl.
 41 42  0  0  0  0  0  0  0  0999 V2000
   23.8500   12.6350   30.3470 C   0  0  0  0  0  0  0  0  0  0  0  0
   23.4140   11.1850   30.4420 C   0  0  0  0  0  0  0  0  0  0  0  0
   22.1660   11.2640   31.2450 O   0  0  0  0  0  0  0  0  0  0  0  0
   21.5380   10.1170   31.5780 C   0  0  0  0  0  0  0  0  0  0  0  0
   22.0220    8.9350   31.1270 N   0  0  0  0  0  0  0  0  0  0  0  0
   21.3050    7.7890   31.4430 C   0  0  0  0  0  0  0  0  0  0  0  0
   20.1550    7.8130   32.2250 C   0  0  0  0  0  0  0  0  0  0  0  0
   19.6590    9.0570   32.7000 C   0  0  0  0  0  0  0  0  0  0  0  0
   18.5130    9.0920   33.4530 N   0  0  0  0  0  0  0  0  0  0  0  0
   20.3570   10.2610   32.3650 C   0  0  0  0  0  0  0  0  0  0  0  0
   19.9310   11.5570   32.7280 C   0  0  0  0  0  0  0  0  0  0  0  0
   19.6290   12.6470   32.9830 N   0  0  0  0  0  0  0  0  0  0  0  0
   21.8800    6.6360   30.8590 N   0  0  0  0  0  0  0  0  0  0  0  0
   21.3460    5.3220   30.8500 C   0  0  0  0  0  0  0  0  0  0  0  0
   20.3120    5.0320   31.4130 O   0  0  0  0  0  0  0  0  0  0  0  0
   22.1690    4.3490   30.0210 C   0  0  0  0  0  0  0  0  0  0  0  0
   23.5120    4.0720   30.6480 C   0  0  0  0  0  0  0  0  0  0  0  0
   23.6310    3.0750   31.6250 C   0  0  0  0  0  0  0  0  0  0  0  0
   24.8610    2.8450   32.2610 C   0  0  0  0  0  0  0  0  0  0  0  0
   24.9860    1.8180   33.3380 C   0  0  0  0  0  0  0  0  0  0  0  0
   25.9830    3.6020   31.8810 C   0  0  0  0  0  0  0  0  0  0  0  0
   25.8700    4.5710   30.8850 C   0  0  0  0  0  0  0  0  0  0  0  0
   24.6390    4.8120   30.2660 C   0  0  0  0  0  0  0  0  0  0  0  0
   24.0990   13.0520   31.3480 H   0  0  0  0  0  0  0  0  0  0  0  0
   23.0540   13.2630   29.8830 H   0  0  0  0  0  0  0  0  0  0  0  0
   24.7610   12.6930   29.6990 H   0  0  0  0  0  0  0  0  0  0  0  0
   23.1490   10.7540   29.4500 H   0  0  0  0  0  0  0  0  0  0  0  0
   24.1440   10.5530   30.9940 H   0  0  0  0  0  0  0  0  0  0  0  0
   19.6150    6.8940   32.4660 H   0  0  0  0  0  0  0  0  0  0  0  0
   18.0160    8.2210   33.7190 H   0  0  0  0  0  0  0  0  0  0  0  0
   18.1120    9.9760   33.7680 H   0  0  0  0  0  0  0  0  0  0  0  0
   22.7750    6.8010   30.3540 H   0  0  0  0  0  0  0  0  0  0  0  0
   21.5980    3.3880   29.9220 H   0  0  0  0  0  0  0  0  0  0  0  0
   22.3060    4.7770   28.9930 H   0  0  0  0  0  0  0  0  0  0  0  0
   22.7690    2.4610   31.8870 H   0  0  0  0  0  0  0  0  0  0  0  0
   25.1560    2.3170   34.3250 H   0  0  0  0  0  0  0  0  0  0  0  0
   24.0730    1.1810   33.4240 H   0  0  0  0  0  0  0  0  0  0  0  0
   25.8560    1.1430   33.1410 H   0  0  0  0  0  0  0  0  0  0  0  0
   26.9490    3.4300   32.3640 H   0  0  0  0  0  0  0  0  0  0  0  0
   26.7500    5.1490   30.5840 H   0  0  0  0  0  0  0  0  0  0  0  0
   24.5800    5.5740   29.4860 H   0  0  0  0  0  0  0  0  0  0  0  0
  1  2  1  0  0  0  0
  1 24  1  0  0  0  0
  1 25  1  0  0  0  0
  1 26  1  0  0  0  0
  2  3  1  0  0  0  0
  2 27  1  0  0  0  0
  2 28  1  0  0  0  0
  3  4  1  0  0  0  0
  4 10  2  0  0  0  0
  4  5  1  0  0  0  0
  5  6  2  0  0  0  0
  6  7  1  0  0  0  0
  6 13  1  0  0  0  0
  7  8  2  0  0  0  0
  7 29  1  0  0  0  0
  8  9  1  0  0  0  0
  8 10  1  0  0  0  0
  9 30  1  0  0  0  0
  9 31  1  0  0  0  0
 10 11  1  0  0  0  0
 11 12  3  0  0  0  0
 13 14  1  0  0  0  0
 13 32  1  0  0  0  0
 14 15  2  0  0  0  0
 14 16  1  0  0  0  0
 16 17  1  0  0  0  0
 16 33  1  0  0  0  0
 16 34  1  0  0  0  0
 17 23  2  0  0  0  0
 17 18  1  0  0  0  0
 18 19  2  0  0  0  0
 18 35  1  0  0  0  0
 19 20  1  0  0  0  0
 19 21  1  0  0  0  0
 20 36  1  0  0  0  0
 20 37  1  0  0  0  0
 20 38  1  0  0  0  0
 21 22  2  0  0  0  0
 21 39  1  0  0  0  0
 22 23  1  0  0  0  0
 22 40  1  0  0  0  0
 23 41  1  0  0  0  0
M  END
$$$$
