p38a_2i
 OpenBabel02232411163D
Structure written by MMmdl.
 48 51  0  0  0  0  0  0  0  0999 V2000
   32.3280   39.5770   27.5610 C   0  0  0  0  0  0  0  0  0  0  0  0
   33.0840   40.6130   28.4010 C   0  0  0  0  0  0  0  0  0  0  0  0
   35.2200   39.6360   27.8940 C   0  0  0  0  0  0  0  0  0  0  0  0
   34.5900   38.5040   27.0820 C   0  0  0  0  0  0  0  0  0  0  0  0
   36.2510   34.7190   15.6950 C   0  0  0  0  0  0  0  0  0  0  0  0
   34.3210   40.0920   28.9320 O   0  0  0  0  0  0  0  0  0  0  0  0
   34.8920   35.6990   21.1040 C   0  0  0  0  0  0  0  0  0  0  0  0
   36.7060   35.3560   16.8470 C   0  0  0  0  0  0  0  0  0  0  0  0
   33.6730   39.3210   24.0670 C   0  0  0  0  0  0  0  0  0  0  0  0
   33.2120   38.8890   26.5010 C   0  0  0  0  0  0  0  0  0  0  0  0
   34.5030   38.4770   21.5880 C   0  0  0  0  0  0  0  0  0  0  0  0
   35.1820   38.0400   20.4060 C   0  0  0  0  0  0  0  0  0  0  0  0
   34.8900   34.4060   15.6060 C   0  0  0  0  0  0  0  0  0  0  0  0
   34.0250   34.7540   16.6440 C   0  0  0  0  0  0  0  0  0  0  0  0
   34.5070   35.4000   17.7880 C   0  0  0  0  0  0  0  0  0  0  0  0
   34.2070   37.5400   22.6240 C   0  0  0  0  0  0  0  0  0  0  0  0
   34.2090   39.8420   21.8420 C   0  0  0  0  0  0  0  0  0  0  0  0
   35.4730   36.7260   20.2240 C   0  0  0  0  0  0  0  0  0  0  0  0
   35.8700   35.6840   17.9330 C   0  0  0  0  0  0  0  0  0  0  0  0
   33.9770   35.1950   23.4240 C   0  0  0  0  0  0  0  0  0  0  0  0
   38.0140   35.6200   16.9290 F   0  0  0  0  0  0  0  0  0  0  0  0
   36.4570   36.2770   19.1810 C   0  0  0  0  0  0  0  0  0  0  0  0
   33.8230   40.2850   23.0420 N   0  0  0  0  0  0  0  0  0  0  0  0
   34.8010   34.5080   20.8790 O   0  0  0  0  0  0  0  0  0  0  0  0
   34.3540   36.1770   22.3710 N   0  0  0  0  0  0  0  0  0  0  0  0
   33.7940   37.9590   23.8680 N   0  0  0  0  0  0  0  0  0  0  0  0
   33.3380   39.7920   25.3130 N   0  0  0  0  0  0  0  0  0  0  0  0
   31.9190   38.7780   28.2300 H   0  0  0  0  0  0  0  0  0  0  0  0
   31.4620   40.0740   27.0610 H   0  0  0  0  0  0  0  0  0  0  0  0
   33.3140   41.5190   27.7980 H   0  0  0  0  0  0  0  0  0  0  0  0
   32.5160   40.8770   29.3230 H   0  0  0  0  0  0  0  0  0  0  0  0
   36.0960   39.2780   28.4820 H   0  0  0  0  0  0  0  0  0  0  0  0
   35.4830   40.5010   27.2440 H   0  0  0  0  0  0  0  0  0  0  0  0
   35.2850   38.2020   26.2610 H   0  0  0  0  0  0  0  0  0  0  0  0
   34.4400   37.6070   27.7370 H   0  0  0  0  0  0  0  0  0  0  0  0
   36.9300   34.4680   14.8790 H   0  0  0  0  0  0  0  0  0  0  0  0
   32.6900   37.9470   26.1590 H   0  0  0  0  0  0  0  0  0  0  0  0
   35.5010   38.8120   19.7000 H   0  0  0  0  0  0  0  0  0  0  0  0
   32.9580   34.5280   16.5610 H   0  0  0  0  0  0  0  0  0  0  0  0
   33.7990   35.6900   18.5690 H   0  0  0  0  0  0  0  0  0  0  0  0
   34.2970   40.5770   21.0260 H   0  0  0  0  0  0  0  0  0  0  0  0
   34.5650   35.3890   24.3610 H   0  0  0  0  0  0  0  0  0  0  0  0
   32.8840   35.2890   23.6650 H   0  0  0  0  0  0  0  0  0  0  0  0
   34.1850   34.1530   23.0660 H   0  0  0  0  0  0  0  0  0  0  0  0
   33.3700   40.8160   25.4860 H   0  0  0  0  0  0  0  0  0  0  0  0
   34.5060   33.8900   14.7230 H   0  0  0  0  0  0  0  0  0  0  0  0
   37.0930   37.1620   18.9000 H   0  0  0  0  0  0  0  0  0  0  0  0
   37.1410   35.5180   19.6530 H   0  0  0  0  0  0  0  0  0  0  0  0
  1  2  1  0  0  0  0
  1 10  1  0  0  0  0
  1 28  1  0  0  0  0
  1 29  1  0  0  0  0
  2  6  1  0  0  0  0
  2 30  1  0  0  0  0
  2 31  1  0  0  0  0
  3  4  1  0  0  0  0
  3  6  1  0  0  0  0
  3 32  1  0  0  0  0
  3 33  1  0  0  0  0
  4 10  1  0  0  0  0
  4 34  1  0  0  0  0
  4 35  1  0  0  0  0
  5  8  2  0  0  0  0
  5 13  1  0  0  0  0
  5 36  1  0  0  0  0
  7 18  1  0  0  0  0
  7 24  2  0  0  0  0
  7 25  1  0  0  0  0
  8 19  1  0  0  0  0
  8 21  1  0  0  0  0
  9 23  2  0  0  0  0
  9 26  1  0  0  0  0
  9 27  1  0  0  0  0
 10 27  1  0  0  0  0
 10 37  1  0  0  0  0
 11 12  1  0  0  0  0
 11 16  1  0  0  0  0
 11 17  2  0  0  0  0
 12 18  2  0  0  0  0
 12 38  1  0  0  0  0
 13 14  2  0  0  0  0
 13 46  1  0  0  0  0
 14 15  1  0  0  0  0
 14 39  1  0  0  0  0
 15 19  2  0  0  0  0
 15 40  1  0  0  0  0
 16 25  1  0  0  0  0
 16 26  2  0  0  0  0
 17 23  1  0  0  0  0
 17 41  1  0  0  0  0
 18 22  1  0  0  0  0
 19 22  1  0  0  0  0
 20 25  1  0  0  0  0
 20 42  1  0  0  0  0
 20 43  1  0  0  0  0
 20 44  1  0  0  0  0
 22 47  1  0  0  0  0
 22 48  1  0  0  0  0
 27 45  1  0  0  0  0
M  END
$$$$
