p38a_2i
 OpenBabel02232411163D
Structure written by MMmdl.
 48 51  0  0  0  0  0  0  0  0999 V2000
   32.4300   39.7370   27.2800 C   0  0  0  0  0  0  0  0  0  0  0  0
   33.3130   40.5660   28.2210 C   0  0  0  0  0  0  0  0  0  0  0  0
   35.1970   39.0990   27.9270 C   0  0  0  0  0  0  0  0  0  0  0  0
   34.4010   38.1390   27.0410 C   0  0  0  0  0  0  0  0  0  0  0  0
   38.2950   36.2940   17.6260 C   0  0  0  0  0  0  0  0  0  0  0  0
   34.3290   39.7730   28.8690 O   0  0  0  0  0  0  0  0  0  0  0  0
   34.3170   35.2210   21.0700 C   0  0  0  0  0  0  0  0  0  0  0  0
   37.1590   35.9430   18.3600 C   0  0  0  0  0  0  0  0  0  0  0  0
   33.9870   39.1140   23.9300 C   0  0  0  0  0  0  0  0  0  0  0  0
   33.2330   38.8390   26.3170 C   0  0  0  0  0  0  0  0  0  0  0  0
   34.4600   38.0610   21.4260 C   0  0  0  0  0  0  0  0  0  0  0  0
   34.6450   37.4810   20.1290 C   0  0  0  0  0  0  0  0  0  0  0  0
   38.1430   36.5630   16.2630 C   0  0  0  0  0  0  0  0  0  0  0  0
   36.8850   36.4660   15.6640 C   0  0  0  0  0  0  0  0  0  0  0  0
   35.7630   36.1210   16.4230 C   0  0  0  0  0  0  0  0  0  0  0  0
   34.1610   37.2190   22.5400 C   0  0  0  0  0  0  0  0  0  0  0  0
   34.5270   39.4600   21.6720 C   0  0  0  0  0  0  0  0  0  0  0  0
   34.5510   36.1390   19.9450 C   0  0  0  0  0  0  0  0  0  0  0  0
   35.8720   35.8640   17.7990 C   0  0  0  0  0  0  0  0  0  0  0  0
   33.8040   34.9710   23.5440 C   0  0  0  0  0  0  0  0  0  0  0  0
   37.3230   35.6660   19.6540 F   0  0  0  0  0  0  0  0  0  0  0  0
   34.6360   35.5120   18.5820 C   0  0  0  0  0  0  0  0  0  0  0  0
   34.3120   40.0010   22.8770 N   0  0  0  0  0  0  0  0  0  0  0  0
   34.2900   34.0050   21.0180 O   0  0  0  0  0  0  0  0  0  0  0  0
   34.1090   35.8350   22.3690 N   0  0  0  0  0  0  0  0  0  0  0  0
   33.9220   37.7410   23.7890 N   0  0  0  0  0  0  0  0  0  0  0  0
   33.7100   39.6620   25.1570 N   0  0  0  0  0  0  0  0  0  0  0  0
   31.7620   39.0720   27.8830 H   0  0  0  0  0  0  0  0  0  0  0  0
   31.7790   40.4330   26.6950 H   0  0  0  0  0  0  0  0  0  0  0  0
   33.8120   41.3930   27.6690 H   0  0  0  0  0  0  0  0  0  0  0  0
   32.7230   40.9540   29.0840 H   0  0  0  0  0  0  0  0  0  0  0  0
   35.8910   38.5500   28.6030 H   0  0  0  0  0  0  0  0  0  0  0  0
   35.7280   39.8640   27.3180 H   0  0  0  0  0  0  0  0  0  0  0  0
   35.0870   37.6600   26.2990 H   0  0  0  0  0  0  0  0  0  0  0  0
   33.9650   37.3190   27.6680 H   0  0  0  0  0  0  0  0  0  0  0  0
   39.2770   36.3940   18.0900 H   0  0  0  0  0  0  0  0  0  0  0  0
   32.5380   38.0450   25.9130 H   0  0  0  0  0  0  0  0  0  0  0  0
   34.8560   38.1540   19.2920 H   0  0  0  0  0  0  0  0  0  0  0  0
   36.7670   36.6810   14.6020 H   0  0  0  0  0  0  0  0  0  0  0  0
   34.7880   36.0690   15.9290 H   0  0  0  0  0  0  0  0  0  0  0  0
   34.7520   40.1470   20.8400 H   0  0  0  0  0  0  0  0  0  0  0  0
   34.5310   35.1740   24.3750 H   0  0  0  0  0  0  0  0  0  0  0  0
   32.7670   35.1880   23.9200 H   0  0  0  0  0  0  0  0  0  0  0  0
   33.8710   33.8900   23.2540 H   0  0  0  0  0  0  0  0  0  0  0  0
   33.7720   40.6890   25.2900 H   0  0  0  0  0  0  0  0  0  0  0  0
   39.0030   36.8690   15.6740 H   0  0  0  0  0  0  0  0  0  0  0  0
   34.5750   34.3940   18.6670 H   0  0  0  0  0  0  0  0  0  0  0  0
   33.7280   35.8480   18.0040 H   0  0  0  0  0  0  0  0  0  0  0  0
  1  2  1  0  0  0  0
  1 10  1  0  0  0  0
  1 28  1  0  0  0  0
  1 29  1  0  0  0  0
  2  6  1  0  0  0  0
  2 30  1  0  0  0  0
  2 31  1  0  0  0  0
  3  4  1  0  0  0  0
  3  6  1  0  0  0  0
  3 32  1  0  0  0  0
  3 33  1  0  0  0  0
  4 10  1  0  0  0  0
  4 34  1  0  0  0  0
  4 35  1  0  0  0  0
  5  8  2  0  0  0  0
  5 13  1  0  0  0  0
  5 36  1  0  0  0  0
  7 18  1  0  0  0  0
  7 24  2  0  0  0  0
  7 25  1  0  0  0  0
  8 19  1  0  0  0  0
  8 21  1  0  0  0  0
  9 23  2  0  0  0  0
  9 26  1  0  0  0  0
  9 27  1  0  0  0  0
 10 27  1  0  0  0  0
 10 37  1  0  0  0  0
 11 12  1  0  0  0  0
 11 16  1  0  0  0  0
 11 17  2  0  0  0  0
 12 18  2  0  0  0  0
 12 38  1  0  0  0  0
 13 14  2  0  0  0  0
 13 46  1  0  0  0  0
 14 15  1  0  0  0  0
 14 39  1  0  0  0  0
 15 19  2  0  0  0  0
 15 40  1  0  0  0  0
 16 25  1  0  0  0  0
 16 26  2  0  0  0  0
 17 23  1  0  0  0  0
 17 41  1  0  0  0  0
 18 22  1  0  0  0  0
 19 22  1  0  0  0  0
 20 25  1  0  0  0  0
 20 42  1  0  0  0  0
 20 43  1  0  0  0  0
 20 44  1  0  0  0  0
 22 47  1  0  0  0  0
 22 48  1  0  0  0  0
 27 45  1  0  0  0  0
M  END
$$$$
