1h1s
                    3D
 Schrodinger Suite 2022-3.
 50 53  0  0  1  0  0  0  0  0999 V2000
    1.4930   29.0170    6.8480 C   0  0  0  0  0  0  0  0  0  0  0  0
   -1.9240   31.6800    8.0140 C   0  0  0  0  0  0  0  0  0  0  0  0
   -0.6580   26.1130    8.7380 C   0  0  0  0  0  0  0  0  0  0  0  0
   -1.3570   25.4160    9.9120 C   0  0  0  0  0  0  0  0  0  0  0  0
   -0.9920   23.9160    9.8180 C   0  0  0  0  0  0  0  0  0  0  0  0
   -1.5590   23.1320   11.0090 C   0  0  0  0  0  0  0  0  0  0  0  0
   -1.1140   23.7340   12.3510 C   0  0  0  0  0  0  0  0  0  0  0  0
   -1.4860   25.2230   12.4460 C   0  0  0  0  0  0  0  0  0  0  0  0
   -0.9130   26.0160   11.2610 C   0  0  0  0  0  0  0  0  0  0  0  0
    4.9140   25.5850    6.1870 C   0  0  0  0  0  0  0  0  0  0  0  0
    4.6690   24.9690    7.4180 C   0  0  0  0  0  0  0  0  0  0  0  0
    3.7860   25.5730    8.3290 C   0  0  0  0  0  0  0  0  0  0  0  0
    3.1520   26.7660    8.0200 C   0  0  0  0  0  0  0  0  0  0  0  0
    0.7110   28.0540    7.4780 N   0  0  0  0  0  0  0  0  0  0  0  0
   -0.4650   28.4070    8.0560 C   0  0  0  0  0  0  0  0  0  0  0  0
   -1.1930   27.4990    8.7190 O   0  0  0  0  0  0  0  0  0  0  0  0
   -0.9190   29.7480    7.9550 C   0  0  0  0  0  0  0  0  0  0  0  0
   -2.0600   30.4130    8.4140 N   0  0  0  0  0  0  0  0  0  0  0  0
   -0.6880   31.9000    7.3100 N   0  0  0  0  0  0  0  0  0  0  0  0
   -0.0500   30.6670    7.2390 C   0  0  0  0  0  0  0  0  0  0  0  0
    1.1540   30.3380    6.6570 N   0  0  0  0  0  0  0  0  0  0  0  0
    2.7340   28.5780    6.3710 N   0  0  0  0  0  0  0  0  0  0  0  0
    3.3660   27.3630    6.7580 C   0  0  0  0  0  0  0  0  0  0  0  0
    4.2730   26.7770    5.8520 C   0  0  0  0  0  0  0  0  0  0  0  0
   -2.6190   32.4920    8.1990 H   0  0  0  0  0  0  0  0  0  0  0  0
   -0.9380   25.6790    7.7560 H   0  0  0  0  0  0  0  0  0  0  0  0
    0.4450   26.1390    8.8880 H   0  0  0  0  0  0  0  0  0  0  0  0
   -2.4640   25.5290    9.8160 H   0  0  0  0  0  0  0  0  0  0  0  0
    0.1200   23.8010    9.8100 H   0  0  0  0  0  0  0  0  0  0  0  0
   -1.4000   23.4920    8.8730 H   0  0  0  0  0  0  0  0  0  0  0  0
   -1.2160   22.0720   10.9510 H   0  0  0  0  0  0  0  0  0  0  0  0
   -2.6690   23.1540   10.9590 H   0  0  0  0  0  0  0  0  0  0  0  0
   -0.0080   23.6280   12.4540 H   0  0  0  0  0  0  0  0  0  0  0  0
   -1.6030   23.1780   13.1830 H   0  0  0  0  0  0  0  0  0  0  0  0
   -1.0710   25.6370   13.3950 H   0  0  0  0  0  0  0  0  0  0  0  0
   -2.5950   25.3270   12.4730 H   0  0  0  0  0  0  0  0  0  0  0  0
   -1.2570   27.0740   11.3240 H   0  0  0  0  0  0  0  0  0  0  0  0
    0.2010   25.9970   11.3300 H   0  0  0  0  0  0  0  0  0  0  0  0
    5.6060   25.1470    5.4560 H   0  0  0  0  0  0  0  0  0  0  0  0
    3.5810   25.1100    9.3020 H   0  0  0  0  0  0  0  0  0  0  0  0
    2.4870   27.2220    8.7550 H   0  0  0  0  0  0  0  0  0  0  0  0
   -0.4100   32.7590    6.8130 H   0  0  0  0  0  0  0  0  0  0  0  0
    3.2640   29.1650    5.6880 H   0  0  0  0  0  0  0  0  0  0  0  0
    4.4710   27.2490    4.8860 H   0  0  0  0  0  0  0  0  0  0  0  0
    5.5230   23.5680    7.9160 S   0  0  0  0  0  0  0  0  0  0  0  0
    6.6460   24.0210    8.7290 O   0  0  0  0  0  0  0  0  0  0  0  0
    5.8550   22.6800    6.7920 O   0  0  0  0  0  0  0  0  0  0  0  0
    4.4720   22.8450    9.9180 H   0  0  0  0  0  0  0  0  0  0  0  0
    4.5010   22.6230    8.8800 N   0  0  0  0  0  0  0  0  0  0  0  0
    3.5710   22.3230    8.5540 H   0  0  0  0  0  0  0  0  0  0  0  0
  1 14  1  0  0  0  0
  1 21  2  0  0  0  0
  1 22  1  0  0  0  0
  2 18  2  0  0  0  0
  2 19  1  0  0  0  0
  2 25  1  0  0  0  0
  3  4  1  0  0  0  0
  3 16  1  0  0  0  0
  3 26  1  0  0  0  0
  3 27  1  0  0  0  0
  4  5  1  0  0  0  0
  4  9  1  0  0  0  0
  4 28  1  0  0  0  0
  5  6  1  0  0  0  0
  5 29  1  0  0  0  0
  5 30  1  0  0  0  0
  6  7  1  0  0  0  0
  6 31  1  0  0  0  0
  6 32  1  0  0  0  0
  7  8  1  0  0  0  0
  7 33  1  0  0  0  0
  7 34  1  0  0  0  0
  8  9  1  0  0  0  0
  8 35  1  0  0  0  0
  8 36  1  0  0  0  0
  9 37  1  0  0  0  0
  9 38  1  0  0  0  0
 10 11  1  0  0  0  0
 10 24  2  0  0  0  0
 10 39  1  0  0  0  0
 11 12  2  0  0  0  0
 11 45  1  0  0  0  0
 12 13  1  0  0  0  0
 12 40  1  0  0  0  0
 13 23  2  0  0  0  0
 13 41  1  0  0  0  0
 14 15  2  0  0  0  0
 15 16  1  0  0  0  0
 15 17  1  0  0  0  0
 17 18  1  0  0  0  0
 17 20  2  0  0  0  0
 19 20  1  0  0  0  0
 19 42  1  0  0  0  0
 20 21  1  0  0  0  0
 22 23  1  0  0  0  0
 22 43  1  0  0  0  0
 23 24  1  0  0  0  0
 24 44  1  0  0  0  0
 45 46  2  0  0  0  0
 45 47  2  0  0  0  0
 45 49  1  0  0  0  0
 48 49  1  0  0  0  0
 49 50  1  0  0  0  0
M  END
$$$$
