p38a_2r
 OpenBabel02232411163D
Structure written by MMmdl.
 56 59  0  0  0  0  0  0  0  0999 V2000
   38.3150   36.5400   17.1730 C   0  0  0  0  0  0  0  0  0  0  0  0
   34.3710   35.1270   21.2070 C   0  0  0  0  0  0  0  0  0  0  0  0
   37.5710   36.0830   18.2580 C   0  0  0  0  0  0  0  0  0  0  0  0
   33.5010   39.2970   23.5080 C   0  0  0  0  0  0  0  0  0  0  0  0
   34.5400   37.9970   21.3100 C   0  0  0  0  0  0  0  0  0  0  0  0
   35.1080   37.3000   20.1900 C   0  0  0  0  0  0  0  0  0  0  0  0
   37.6330   36.6550   15.9540 C   0  0  0  0  0  0  0  0  0  0  0  0
   36.2890   36.3100   15.7880 C   0  0  0  0  0  0  0  0  0  0  0  0
   35.5670   35.8410   16.8910 C   0  0  0  0  0  0  0  0  0  0  0  0
   33.9020   37.2770   22.3640 C   0  0  0  0  0  0  0  0  0  0  0  0
   34.5870   39.4120   21.4320 C   0  0  0  0  0  0  0  0  0  0  0  0
   35.0390   35.9500   20.1640 C   0  0  0  0  0  0  0  0  0  0  0  0
   36.2150   35.7180   18.1230 C   0  0  0  0  0  0  0  0  0  0  0  0
   38.1340   35.9900   19.4550 F   0  0  0  0  0  0  0  0  0  0  0  0
   35.5530   35.0950   19.1900 O   0  0  0  0  0  0  0  0  0  0  0  0
   34.1130   40.0690   22.4980 N   0  0  0  0  0  0  0  0  0  0  0  0
   34.2720   33.9190   21.1830 O   0  0  0  0  0  0  0  0  0  0  0  0
   33.7990   35.8750   22.2970 N   0  0  0  0  0  0  0  0  0  0  0  0
   33.3710   37.9290   23.4500 N   0  0  0  0  0  0  0  0  0  0  0  0
   32.9530   40.0120   24.5610 N   0  0  0  0  0  0  0  0  0  0  0  0
   39.3630   36.8320   17.2760 H   0  0  0  0  0  0  0  0  0  0  0  0
   35.5770   37.8890   19.3990 H   0  0  0  0  0  0  0  0  0  0  0  0
   35.7920   36.4170   14.8210 H   0  0  0  0  0  0  0  0  0  0  0  0
   34.5060   35.5940   16.7820 H   0  0  0  0  0  0  0  0  0  0  0  0
   35.0330   40.0140   20.6250 H   0  0  0  0  0  0  0  0  0  0  0  0
   33.2450   41.0090   24.6490 H   0  0  0  0  0  0  0  0  0  0  0  0
   38.2910   37.1560   14.9120 F   0  0  0  0  0  0  0  0  0  0  0  0
   33.4090   38.2020   27.9300 C   0  0  0  0  0  0  0  0  0  0  0  0
   33.8190   38.9000   26.6300 C   0  0  0  0  0  0  0  0  0  0  0  0
   32.5740   39.4350   25.8880 C   0  0  0  0  0  0  0  0  0  0  0  0
   31.4670   38.3740   25.7610 C   0  0  0  0  0  0  0  0  0  0  0  0
   31.1980   37.7120   27.1160 C   0  0  0  0  0  0  0  0  0  0  0  0
   32.4210   37.1770   27.6770 O   0  0  0  0  0  0  0  0  0  0  0  0
   32.9980   38.9310   28.6660 H   0  0  0  0  0  0  0  0  0  0  0  0
   34.2530   37.6170   28.3620 H   0  0  0  0  0  0  0  0  0  0  0  0
   34.3690   38.1790   25.9800 H   0  0  0  0  0  0  0  0  0  0  0  0
   34.5040   39.7510   26.8680 H   0  0  0  0  0  0  0  0  0  0  0  0
   32.1600   40.3170   26.4640 H   0  0  0  0  0  0  0  0  0  0  0  0
   30.5350   38.8560   25.3820 H   0  0  0  0  0  0  0  0  0  0  0  0
   31.7730   37.5820   25.0350 H   0  0  0  0  0  0  0  0  0  0  0  0
   30.7460   38.4270   27.8380 H   0  0  0  0  0  0  0  0  0  0  0  0
   30.5690   36.7990   27.0020 H   0  0  0  0  0  0  0  0  0  0  0  0
   33.0710   35.1190   23.3580 C   0  0  0  0  0  0  0  0  0  0  0  0
   32.2190   35.7510   23.7300 H   0  0  0  0  0  0  0  0  0  0  0  0
   32.6340   34.1950   22.8830 H   0  0  0  0  0  0  0  0  0  0  0  0
   33.9580   34.6840   24.5770 C   0  0  0  0  0  0  0  0  0  0  0  0
   34.3320   35.8330   25.3520 O   0  0  0  0  0  0  0  0  0  0  0  0
   33.5470   36.3070   25.7120 H   0  0  0  0  0  0  0  0  0  0  0  0
   35.3030   34.0810   24.1670 C   0  0  0  0  0  0  0  0  0  0  0  0
   35.9860   34.8960   23.8470 H   0  0  0  0  0  0  0  0  0  0  0  0
   35.7730   33.5610   25.0320 H   0  0  0  0  0  0  0  0  0  0  0  0
   35.1690   33.3470   23.3460 H   0  0  0  0  0  0  0  0  0  0  0  0
   33.1190   33.7300   25.4430 C   0  0  0  0  0  0  0  0  0  0  0  0
   33.6090   33.5790   26.4330 H   0  0  0  0  0  0  0  0  0  0  0  0
   32.0960   34.1320   25.6260 H   0  0  0  0  0  0  0  0  0  0  0  0
   33.0200   32.7330   24.9560 H   0  0  0  0  0  0  0  0  0  0  0  0
  1  3  2  0  0  0  0
  1  7  1  0  0  0  0
  1 21  1  0  0  0  0
  2 12  1  0  0  0  0
  2 17  2  0  0  0  0
  2 18  1  0  0  0  0
  3 13  1  0  0  0  0
  3 14  1  0  0  0  0
  4 16  2  0  0  0  0
  4 19  1  0  0  0  0
  4 20  1  0  0  0  0
  5  6  1  0  0  0  0
  5 10  1  0  0  0  0
  5 11  2  0  0  0  0
  6 12  2  0  0  0  0
  6 22  1  0  0  0  0
  7  8  2  0  0  0  0
  7 27  1  0  0  0  0
  8  9  1  0  0  0  0
  8 23  1  0  0  0  0
  9 13  2  0  0  0  0
  9 24  1  0  0  0  0
 10 18  1  0  0  0  0
 10 19  2  0  0  0  0
 11 16  1  0  0  0  0
 11 25  1  0  0  0  0
 12 15  1  0  0  0  0
 13 15  1  0  0  0  0
 18 43  1  0  0  0  0
 20 26  1  0  0  0  0
 20 30  1  0  0  0  0
 28 29  1  0  0  0  0
 28 33  1  0  0  0  0
 28 34  1  0  0  0  0
 28 35  1  0  0  0  0
 29 30  1  0  0  0  0
 29 36  1  0  0  0  0
 29 37  1  0  0  0  0
 30 31  1  0  0  0  0
 30 38  1  0  0  0  0
 31 32  1  0  0  0  0
 31 39  1  0  0  0  0
 31 40  1  0  0  0  0
 32 33  1  0  0  0  0
 32 41  1  0  0  0  0
 32 42  1  0  0  0  0
 43 44  1  0  0  0  0
 43 45  1  0  0  0  0
 43 46  1  0  0  0  0
 46 47  1  0  0  0  0
 46 49  1  0  0  0  0
 46 53  1  0  0  0  0
 47 48  1  0  0  0  0
 49 50  1  0  0  0  0
 49 51  1  0  0  0  0
 49 52  1  0  0  0  0
 53 54  1  0  0  0  0
 53 55  1  0  0  0  0
 53 56  1  0  0  0  0
M  END
$$$$
