p38a_2aa
 OpenBabel02232411163D
Structure written by MMmdl.
 43 45  0  0  0  0  0  0  0  0999 V2000
   38.2620   36.5300   17.1640 C   0  0  0  0  0  0  0  0  0  0  0  0
   34.5620   35.0980   21.2250 C   0  0  0  0  0  0  0  0  0  0  0  0
   37.4580   36.0820   18.2080 C   0  0  0  0  0  0  0  0  0  0  0  0
   34.0120   39.1520   23.8090 C   0  0  0  0  0  0  0  0  0  0  0  0
   33.0970   39.0540   26.1480 C   0  0  0  0  0  0  0  0  0  0  0  0
   34.6570   37.9740   21.4030 C   0  0  0  0  0  0  0  0  0  0  0  0
   35.0240   37.3310   20.1700 C   0  0  0  0  0  0  0  0  0  0  0  0
   37.6300   36.7140   15.9260 C   0  0  0  0  0  0  0  0  0  0  0  0
   36.2760   36.4490   15.7050 C   0  0  0  0  0  0  0  0  0  0  0  0
   35.4920   35.9880   16.7680 C   0  0  0  0  0  0  0  0  0  0  0  0
   34.3130   37.1890   22.5430 C   0  0  0  0  0  0  0  0  0  0  0  0
   34.6240   39.3850   21.5580 C   0  0  0  0  0  0  0  0  0  0  0  0
   35.0020   35.9800   20.1100 C   0  0  0  0  0  0  0  0  0  0  0  0
   36.0900   35.7950   18.0160 C   0  0  0  0  0  0  0  0  0  0  0  0
   34.0120   34.9870   23.6850 C   0  0  0  0  0  0  0  0  0  0  0  0
   37.9760   35.9210   19.4190 F   0  0  0  0  0  0  0  0  0  0  0  0
   35.3440   35.1740   19.0270 O   0  0  0  0  0  0  0  0  0  0  0  0
   34.3190   39.9850   22.7210 N   0  0  0  0  0  0  0  0  0  0  0  0
   34.4230   33.8980   21.1640 O   0  0  0  0  0  0  0  0  0  0  0  0
   34.2920   35.7900   22.4610 N   0  0  0  0  0  0  0  0  0  0  0  0
   33.9710   37.7740   23.7400 N   0  0  0  0  0  0  0  0  0  0  0  0
   33.7770   39.7640   25.0270 N   0  0  0  0  0  0  0  0  0  0  0  0
   39.3210   36.7650   17.3100 H   0  0  0  0  0  0  0  0  0  0  0  0
   33.3590   39.8720   27.4420 C   0  0  0  0  0  0  0  0  0  0  0  0
   35.3160   37.9610   19.3270 H   0  0  0  0  0  0  0  0  0  0  0  0
   35.8190   36.6130   14.7270 H   0  0  0  0  0  0  0  0  0  0  0  0
   34.4250   35.7970   16.6170 H   0  0  0  0  0  0  0  0  0  0  0  0
   34.8410   40.0390   20.6970 H   0  0  0  0  0  0  0  0  0  0  0  0
   34.6060   35.3870   24.5520 H   0  0  0  0  0  0  0  0  0  0  0  0
   32.9220   35.0430   23.9410 H   0  0  0  0  0  0  0  0  0  0  0  0
   34.2990   33.9150   23.5150 H   0  0  0  0  0  0  0  0  0  0  0  0
   33.6810   40.8010   25.0480 H   0  0  0  0  0  0  0  0  0  0  0  0
   38.3490   37.2040   14.9190 F   0  0  0  0  0  0  0  0  0  0  0  0
   31.5760   38.9030   25.8950 C   0  0  0  0  0  0  0  0  0  0  0  0
   31.2550   37.6780   25.2320 O   0  0  0  0  0  0  0  0  0  0  0  0
   31.9420   37.4690   24.5560 H   0  0  0  0  0  0  0  0  0  0  0  0
   31.0300   38.8160   26.8670 H   0  0  0  0  0  0  0  0  0  0  0  0
   31.1830   39.7490   25.2840 H   0  0  0  0  0  0  0  0  0  0  0  0
   32.8300   39.1660   28.5700 O   0  0  0  0  0  0  0  0  0  0  0  0
   34.4510   40.0570   27.5770 H   0  0  0  0  0  0  0  0  0  0  0  0
   32.7920   40.8320   27.4470 H   0  0  0  0  0  0  0  0  0  0  0  0
   33.3910   38.3640   28.7500 H   0  0  0  0  0  0  0  0  0  0  0  0
   33.5640   38.0330   26.2640 H   0  0  0  0  0  0  0  0  0  0  0  0
  1  3  2  0  0  0  0
  1  8  1  0  0  0  0
  1 23  1  0  0  0  0
  2 13  1  0  0  0  0
  2 19  2  0  0  0  0
  2 20  1  0  0  0  0
  3 14  1  0  0  0  0
  3 16  1  0  0  0  0
  4 18  2  0  0  0  0
  4 21  1  0  0  0  0
  4 22  1  0  0  0  0
  5 22  1  0  0  0  0
  5 24  1  0  0  0  0
  5 34  1  0  0  0  0
  5 43  1  0  0  0  0
  6  7  1  0  0  0  0
  6 11  1  0  0  0  0
  6 12  2  0  0  0  0
  7 13  2  0  0  0  0
  7 25  1  0  0  0  0
  8  9  2  0  0  0  0
  8 33  1  0  0  0  0
  9 10  1  0  0  0  0
  9 26  1  0  0  0  0
 10 14  2  0  0  0  0
 10 27  1  0  0  0  0
 11 20  1  0  0  0  0
 11 21  2  0  0  0  0
 12 18  1  0  0  0  0
 12 28  1  0  0  0  0
 13 17  1  0  0  0  0
 14 17  1  0  0  0  0
 15 20  1  0  0  0  0
 15 29  1  0  0  0  0
 15 30  1  0  0  0  0
 15 31  1  0  0  0  0
 22 32  1  0  0  0  0
 24 39  1  0  0  0  0
 24 40  1  0  0  0  0
 24 41  1  0  0  0  0
 34 35  1  0  0  0  0
 34 37  1  0  0  0  0
 34 38  1  0  0  0  0
 35 36  1  0  0  0  0
 39 42  1  0  0  0  0
M  END
$$$$
