CAT-4l
 OpenBabel02232411143D
Structure written by MMmdl.
 44 47  0  0  1  0  0  0  0  0999 V2000
   11.4960   -2.7110    1.5530 C   0  0  0  0  0  0  0  0  0  0  0  0
   12.8160   -2.6940    0.8900 N   0  0  0  0  0  0  0  0  0  0  0  0
   14.0290   -2.5650    1.5610 C   0  0  0  0  0  0  0  0  0  0  0  0
   14.2380   -2.5260    2.9030 N   0  0  0  0  0  0  0  0  0  0  0  0
   15.0810   -2.5400    0.6410 N   0  3  0  0  0  0  0  0  0  0  0  0
   14.6010   -3.0920   -0.6890 C   0  0  2  0  0  0  0  0  0  0  0  0
   15.0090   -4.5540   -0.6790 C   0  0  0  0  0  0  0  0  0  0  0  0
   14.0830   -5.5660   -0.3800 C   0  0  0  0  0  0  0  0  0  0  0  0
   14.5230   -6.8690   -0.1380 C   0  0  0  0  0  0  0  0  0  0  0  0
   15.8850   -7.1800   -0.2190 C   0  0  0  0  0  0  0  0  0  0  0  0
   16.8070   -6.1760   -0.5350 C   0  0  0  0  0  0  0  0  0  0  0  0
   16.3740   -4.8670   -0.7610 C   0  0  0  0  0  0  0  0  0  0  0  0
   15.0420   -2.1770   -1.8090 C   0  0  0  0  0  0  0  0  0  0  0  0
   15.4660   -2.6920   -3.0370 C   0  0  0  0  0  0  0  0  0  0  0  0
   15.7780   -1.8090   -4.0760 C   0  0  0  0  0  0  0  0  0  0  0  0
   15.6710   -0.4280   -3.9080 C   0  0  0  0  0  0  0  0  0  0  0  0
   15.2340    0.0920   -2.6750 C   0  0  0  0  0  0  0  0  0  0  0  0
   15.0410    1.5490   -2.4960 C   0  0  0  0  0  0  0  0  0  0  0  0
   15.3730    2.2250   -1.2970 C   0  0  0  0  0  0  0  0  0  0  0  0
   15.1200    3.5510   -1.1370 N   0  0  0  0  0  0  0  0  0  0  0  0
   14.5440    4.2100   -2.1690 C   0  0  0  0  0  0  0  0  0  0  0  0
   14.2460    3.5490   -3.3880 C   0  0  0  0  0  0  0  0  0  0  0  0
   14.4880    2.2280   -3.5470 N   0  0  0  0  0  0  0  0  0  0  0  0
   14.9310   -0.7870   -1.6280 C   0  0  0  0  0  0  0  0  0  0  0  0
   13.0480   -2.9410   -0.5520 C   0  0  0  0  0  0  0  0  0  0  0  0
   12.1650   -2.9620   -1.3450 O   0  0  0  0  0  0  0  0  0  0  0  0
   10.8640   -3.5200    1.0950 H   0  0  0  0  0  0  0  0  0  0  0  0
   11.6020   -2.9260    2.6490 H   0  0  0  0  0  0  0  0  0  0  0  0
   10.9960   -1.7150    1.4150 H   0  0  0  0  0  0  0  0  0  0  0  0
   15.2270   -2.3970    3.2580 H   0  0  0  0  0  0  0  0  0  0  0  0
   16.0500   -2.7860    0.9830 H   0  0  0  0  0  0  0  0  0  0  0  0
   13.0140   -5.3600   -0.3080 H   0  0  0  0  0  0  0  0  0  0  0  0
   13.7930   -7.6450    0.1180 H   0  0  0  0  0  0  0  0  0  0  0  0
   16.2160   -8.2050   -0.0210 H   0  0  0  0  0  0  0  0  0  0  0  0
   17.8800   -6.3880   -0.5450 H   0  0  0  0  0  0  0  0  0  0  0  0
   17.0980   -4.0730   -0.9550 H   0  0  0  0  0  0  0  0  0  0  0  0
   15.5510   -3.7710   -3.1780 H   0  0  0  0  0  0  0  0  0  0  0  0
   16.1060   -2.2030   -5.0370 H   0  0  0  0  0  0  0  0  0  0  0  0
   15.9280    0.2410   -4.7390 H   0  0  0  0  0  0  0  0  0  0  0  0
   15.8390    1.6950   -0.4530 H   0  0  0  0  0  0  0  0  0  0  0  0
   14.3020    5.2770   -2.0290 H   0  0  0  0  0  0  0  0  0  0  0  0
   13.7990    4.0940   -4.2380 H   0  0  0  0  0  0  0  0  0  0  0  0
   14.6080   -0.4000   -0.6610 H   0  0  0  0  0  0  0  0  0  0  0  0
   13.5320   -2.1090    3.5580 H   0  0  0  0  0  0  0  0  0  0  0  0
  1  2  1  0  0  0  0
  1 27  1  0  0  0  0
  1 28  1  0  0  0  0
  1 29  1  0  0  0  0
  2  3  1  0  0  0  0
  2 25  1  0  0  0  0
  3  4  1  0  0  0  0
  3  5  2  0  0  0  0
  4 30  1  0  0  0  0
  4 44  1  0  0  0  0
  5  6  1  0  0  0  0
  5 31  1  0  0  0  0
  6  7  1  6  0  0  0
  6 13  1  0  0  0  0
  6 25  1  0  0  0  0
  7  8  2  0  0  0  0
  7 12  1  0  0  0  0
  8  9  1  0  0  0  0
  8 32  1  0  0  0  0
  9 10  2  0  0  0  0
  9 33  1  0  0  0  0
 10 11  1  0  0  0  0
 10 34  1  0  0  0  0
 11 12  2  0  0  0  0
 11 35  1  0  0  0  0
 12 36  1  0  0  0  0
 13 14  2  0  0  0  0
 13 24  1  0  0  0  0
 14 15  1  0  0  0  0
 14 37  1  0  0  0  0
 15 16  2  0  0  0  0
 15 38  1  0  0  0  0
 16 17  1  0  0  0  0
 16 39  1  0  0  0  0
 17 18  1  0  0  0  0
 17 24  2  0  0  0  0
 18 19  2  0  0  0  0
 18 23  1  0  0  0  0
 19 20  1  0  0  0  0
 19 40  1  0  0  0  0
 20 21  2  0  0  0  0
 21 22  1  0  0  0  0
 21 41  1  0  0  0  0
 22 23  2  0  0  0  0
 22 42  1  0  0  0  0
 24 43  1  0  0  0  0
 25 26  2  0  0  0  0
M  CHG  1   5   1
M  END
$$$$
