32
 OpenBabel02232411153D
Structure written by MMmdl.
 54 57  0  0  0  0  0  0  0  0999 V2000
    2.1550   28.7920    6.6270 C   0  0  0  0  0  0  0  0  0  0  0  0
   -1.3370   31.3560    7.8270 C   0  0  0  0  0  0  0  0  0  0  0  0
    0.3290   26.0020    9.0020 C   0  0  0  0  0  0  0  0  0  0  0  0
   -0.6320   25.2910    9.9640 C   0  0  0  0  0  0  0  0  0  0  0  0
   -0.4770   23.7660    9.7810 C   0  0  0  0  0  0  0  0  0  0  0  0
   -1.3800   23.0060   10.7650 C   0  0  0  0  0  0  0  0  0  0  0  0
   -1.1010   23.4190   12.2200 C   0  0  0  0  0  0  0  0  0  0  0  0
   -1.2440   24.9380   12.4080 C   0  0  0  0  0  0  0  0  0  0  0  0
   -0.3550   25.7090   11.4210 C   0  0  0  0  0  0  0  0  0  0  0  0
    5.8360   25.9110    4.9660 C   0  0  0  0  0  0  0  0  0  0  0  0
    5.7490   24.9120    5.9540 C   0  0  0  0  0  0  0  0  0  0  0  0
    4.8550   25.1560    7.0150 C   0  0  0  0  0  0  0  0  0  0  0  0
    4.0350   26.2920    7.0940 C   0  0  0  0  0  0  0  0  0  0  0  0
    1.5020   27.8500    7.4100 N   0  0  0  0  0  0  0  0  0  0  0  0
    0.2990   28.1720    7.9620 C   0  0  0  0  0  0  0  0  0  0  0  0
   -0.3550   27.2910    8.7290 O   0  0  0  0  0  0  0  0  0  0  0  0
   -0.2670   29.4570    7.7540 C   0  0  0  0  0  0  0  0  0  0  0  0
   -1.4240   30.0860    8.2310 N   0  0  0  0  0  0  0  0  0  0  0  0
   -0.1310   31.6110    7.0830 N   0  0  0  0  0  0  0  0  0  0  0  0
    0.5440   30.3980    6.9990 C   0  0  0  0  0  0  0  0  0  0  0  0
    1.7370   30.0910    6.3940 N   0  0  0  0  0  0  0  0  0  0  0  0
    3.3320   28.4180    5.9680 N   0  0  0  0  0  0  0  0  0  0  0  0
    4.1060   27.2360    6.0650 C   0  0  0  0  0  0  0  0  0  0  0  0
    5.0480   27.0450    5.0170 C   0  0  0  0  0  0  0  0  0  0  0  0
   -2.0510   32.1510    8.0210 H   0  0  0  0  0  0  0  0  0  0  0  0
    1.3120   26.2260    9.4680 H   0  0  0  0  0  0  0  0  0  0  0  0
    0.4340   25.4760    8.0320 H   0  0  0  0  0  0  0  0  0  0  0  0
   -1.6820   25.5820    9.7110 H   0  0  0  0  0  0  0  0  0  0  0  0
   -0.7470   23.4820    8.7400 H   0  0  0  0  0  0  0  0  0  0  0  0
    0.5860   23.4770    9.9690 H   0  0  0  0  0  0  0  0  0  0  0  0
   -2.4430   23.2260   10.5240 H   0  0  0  0  0  0  0  0  0  0  0  0
   -1.2000   21.9110   10.6610 H   0  0  0  0  0  0  0  0  0  0  0  0
   -1.8140   22.8920   12.8940 H   0  0  0  0  0  0  0  0  0  0  0  0
   -0.0640   23.1140   12.4920 H   0  0  0  0  0  0  0  0  0  0  0  0
   -2.3090   25.2310   12.2670 H   0  0  0  0  0  0  0  0  0  0  0  0
   -0.9400   25.2060   13.4470 H   0  0  0  0  0  0  0  0  0  0  0  0
    0.7140   25.4980   11.6690 H   0  0  0  0  0  0  0  0  0  0  0  0
   -0.5370   26.8010   11.5370 H   0  0  0  0  0  0  0  0  0  0  0  0
    6.5320   25.8050    4.1210 H   0  0  0  0  0  0  0  0  0  0  0  0
    3.3470   26.4350    7.9270 H   0  0  0  0  0  0  0  0  0  0  0  0
    0.1070   32.5050    6.6300 H   0  0  0  0  0  0  0  0  0  0  0  0
    3.7550   29.1510    5.3340 H   0  0  0  0  0  0  0  0  0  0  0  0
    5.1520   27.7960    4.2370 H   0  0  0  0  0  0  0  0  0  0  0  0
    6.7160   23.4980    5.7700 S   0  0  0  0  0  0  0  0  0  0  0  0
    7.2120   23.3170    4.3980 O   0  0  0  0  0  0  0  0  0  0  0  0
    7.7440   23.4830    6.8090 O   0  0  0  0  0  0  0  0  0  0  0  0
    5.6230   22.2030    6.0690 N   0  0  0  0  0  0  0  0  0  0  0  0
    5.2700   21.7040    5.2250 H   0  0  0  0  0  0  0  0  0  0  0  0
    4.8320   22.4120    6.7110 H   0  0  0  0  0  0  0  0  0  0  0  0
    4.8790   24.1840    7.9850 O   0  0  0  0  0  0  0  0  0  0  0  0
    3.7610   24.0900    8.9060 C   0  0  0  0  0  0  0  0  0  0  0  0
    4.0180   23.1620    9.4720 H   0  0  0  0  0  0  0  0  0  0  0  0
    3.7470   24.9660    9.5860 H   0  0  0  0  0  0  0  0  0  0  0  0
    2.8150   23.9690    8.3420 H   0  0  0  0  0  0  0  0  0  0  0  0
  1 14  2  0  0  0  0
  1 21  1  0  0  0  0
  1 22  1  0  0  0  0
  2 18  2  0  0  0  0
  2 19  1  0  0  0  0
  2 25  1  0  0  0  0
  3  4  1  0  0  0  0
  3 16  1  0  0  0  0
  3 26  1  0  0  0  0
  3 27  1  0  0  0  0
  4  5  1  0  0  0  0
  4  9  1  0  0  0  0
  4 28  1  0  0  0  0
  5  6  1  0  0  0  0
  5 29  1  0  0  0  0
  5 30  1  0  0  0  0
  6  7  1  0  0  0  0
  6 31  1  0  0  0  0
  6 32  1  0  0  0  0
  7  8  1  0  0  0  0
  7 33  1  0  0  0  0
  7 34  1  0  0  0  0
  8  9  1  0  0  0  0
  8 35  1  0  0  0  0
  8 36  1  0  0  0  0
  9 37  1  0  0  0  0
  9 38  1  0  0  0  0
 10 11  2  0  0  0  0
 10 24  1  0  0  0  0
 10 39  1  0  0  0  0
 11 12  1  0  0  0  0
 11 44  1  0  0  0  0
 12 13  2  0  0  0  0
 12 50  1  0  0  0  0
 13 23  1  0  0  0  0
 13 40  1  0  0  0  0
 14 15  1  0  0  0  0
 15 16  1  0  0  0  0
 15 17  2  0  0  0  0
 17 18  1  0  0  0  0
 17 20  1  0  0  0  0
 19 20  1  0  0  0  0
 19 41  1  0  0  0  0
 20 21  2  0  0  0  0
 22 23  1  0  0  0  0
 22 42  1  0  0  0  0
 23 24  2  0  0  0  0
 24 43  1  0  0  0  0
 44 45  2  0  0  0  0
 44 46  2  0  0  0  0
 44 47  1  0  0  0  0
 47 49  1  0  0  0  0
 47 48  1  0  0  0  0
 50 51  1  0  0  0  0
 51 52  1  0  0  0  0
 51 53  1  0  0  0  0
 51 54  1  0  0  0  0
M  END
$$$$
