18639-1
 OpenBabel02232411163D
Structure written by MMmdl.
 48 49  0  0  0  0  0  0  0  0999 V2000
   24.4350   10.9110   30.7490 C   0  0  0  0  0  0  0  0  0  0  0  0
   23.1080   11.2660   30.1130 C   0  0  0  0  0  0  0  0  0  0  0  0
   22.0340   11.3260   31.1270 O   0  0  0  0  0  0  0  0  0  0  0  0
   21.4500   10.1760   31.5360 C   0  0  0  0  0  0  0  0  0  0  0  0
   21.9310    8.9880   31.1040 N   0  0  0  0  0  0  0  0  0  0  0  0
   21.2380    7.8440   31.4700 C   0  0  0  0  0  0  0  0  0  0  0  0
   20.1000    7.8760   32.2690 C   0  0  0  0  0  0  0  0  0  0  0  0
   19.6100    9.1270   32.7310 C   0  0  0  0  0  0  0  0  0  0  0  0
   18.4750    9.1640   33.5000 N   0  0  0  0  0  0  0  0  0  0  0  0
   20.2980   10.3280   32.3660 C   0  0  0  0  0  0  0  0  0  0  0  0
   19.8830   11.6260   32.7320 C   0  0  0  0  0  0  0  0  0  0  0  0
   19.5930   12.7190   32.9900 N   0  0  0  0  0  0  0  0  0  0  0  0
   21.8290    6.6810   30.9230 N   0  0  0  0  0  0  0  0  0  0  0  0
   21.2640    5.3900   30.8700 C   0  0  0  0  0  0  0  0  0  0  0  0
   20.1910    5.1160   31.3630 O   0  0  0  0  0  0  0  0  0  0  0  0
   22.0990    4.4020   30.0630 C   0  0  0  0  0  0  0  0  0  0  0  0
   23.4740    4.1540   30.6110 C   0  0  0  0  0  0  0  0  0  0  0  0
   24.5570    5.0300   30.2840 C   0  0  0  0  0  0  0  0  0  0  0  0
   24.1780    6.0800   29.4580 O   0  0  0  0  0  0  0  0  0  0  0  0
   25.1230    7.1720   29.2780 C   0  0  0  0  0  0  0  0  0  0  0  0
   25.8450    4.7980   30.7390 C   0  0  0  0  0  0  0  0  0  0  0  0
   26.0980    3.6830   31.5670 C   0  0  0  0  0  0  0  0  0  0  0  0
   27.4590    3.4420   32.0530 N   0  3  0  0  0  0  0  0  0  0  0  0
   27.6150    2.6390   32.9600 O   0  5  0  0  0  0  0  0  0  0  0  0
   28.3850    4.0490   31.5270 O   0  0  0  0  0  0  0  0  0  0  0  0
   25.0390    2.8070   31.9000 C   0  0  0  0  0  0  0  0  0  0  0  0
   23.7360    3.0500   31.4070 C   0  0  0  0  0  0  0  0  0  0  0  0
   25.4070    1.7690   32.7030 O   0  0  0  0  0  0  0  0  0  0  0  0
   24.4250    0.7190   32.9480 C   0  0  0  0  0  0  0  0  0  0  0  0
   25.2250   10.8760   29.9570 H   0  0  0  0  0  0  0  0  0  0  0  0
   24.7300   11.6650   31.5090 H   0  0  0  0  0  0  0  0  0  0  0  0
   24.3950    9.9050   31.2310 H   0  0  0  0  0  0  0  0  0  0  0  0
   23.0800   12.3230   29.7550 H   0  0  0  0  0  0  0  0  0  0  0  0
   22.8200   10.5480   29.3120 H   0  0  0  0  0  0  0  0  0  0  0  0
   19.5680    6.9580   32.5290 H   0  0  0  0  0  0  0  0  0  0  0  0
   17.9750    8.2890   33.7550 H   0  0  0  0  0  0  0  0  0  0  0  0
   18.0630   10.0480   33.7980 H   0  0  0  0  0  0  0  0  0  0  0  0
   22.7370    6.8410   30.4170 H   0  0  0  0  0  0  0  0  0  0  0  0
   21.5390    3.4290   30.0100 H   0  0  0  0  0  0  0  0  0  0  0  0
   22.1960    4.8110   29.0170 H   0  0  0  0  0  0  0  0  0  0  0  0
   25.4870    7.5460   30.2580 H   0  0  0  0  0  0  0  0  0  0  0  0
   25.9490    6.8280   28.6200 H   0  0  0  0  0  0  0  0  0  0  0  0
   24.4820    7.9320   28.7710 H   0  0  0  0  0  0  0  0  0  0  0  0
   26.6770    5.4540   30.4570 H   0  0  0  0  0  0  0  0  0  0  0  0
   22.9300    2.3530   31.6490 H   0  0  0  0  0  0  0  0  0  0  0  0
   25.0270   -0.0110   33.5390 H   0  0  0  0  0  0  0  0  0  0  0  0
   23.5800    1.1180   33.5480 H   0  0  0  0  0  0  0  0  0  0  0  0
   24.0930    0.2750   31.9840 H   0  0  0  0  0  0  0  0  0  0  0  0
  1  2  1  0  0  0  0
  1 30  1  0  0  0  0
  1 31  1  0  0  0  0
  1 32  1  0  0  0  0
  2  3  1  0  0  0  0
  2 33  1  0  0  0  0
  2 34  1  0  0  0  0
  3  4  1  0  0  0  0
  4 10  2  0  0  0  0
  4  5  1  0  0  0  0
  5  6  2  0  0  0  0
  6  7  1  0  0  0  0
  6 13  1  0  0  0  0
  7  8  2  0  0  0  0
  7 35  1  0  0  0  0
  8  9  1  0  0  0  0
  8 10  1  0  0  0  0
  9 36  1  0  0  0  0
  9 37  1  0  0  0  0
 10 11  1  0  0  0  0
 11 12  3  0  0  0  0
 13 14  1  0  0  0  0
 13 38  1  0  0  0  0
 14 15  2  0  0  0  0
 14 16  1  0  0  0  0
 16 17  1  0  0  0  0
 16 39  1  0  0  0  0
 16 40  1  0  0  0  0
 17 27  2  0  0  0  0
 17 18  1  0  0  0  0
 18 19  1  0  0  0  0
 18 21  2  0  0  0  0
 19 20  1  0  0  0  0
 20 41  1  0  0  0  0
 20 42  1  0  0  0  0
 20 43  1  0  0  0  0
 21 22  1  0  0  0  0
 21 44  1  0  0  0  0
 22 23  1  0  0  0  0
 22 26  2  0  0  0  0
 23 24  1  0  0  0  0
 23 25  2  0  0  0  0
 26 27  1  0  0  0  0
 26 28  1  0  0  0  0
 27 45  1  0  0  0  0
 28 29  1  0  0  0  0
 29 46  1  0  0  0  0
 29 47  1  0  0  0  0
 29 48  1  0  0  0  0
M  CHG  2  23   1  24  -1
M  END
$$$$
