p38a_2e
 OpenBabel02232411163D
Structure written by MMmdl.
 46 49  0  0  0  0  0  0  0  0999 V2000
   34.1950   38.2720   26.9710 C   0  0  0  0  0  0  0  0  0  0  0  0
   33.5980   37.7840   28.2980 C   0  0  0  0  0  0  0  0  0  0  0  0
   31.3410   38.2210   27.5470 C   0  0  0  0  0  0  0  0  0  0  0  0
   31.8300   38.7280   26.1830 C   0  0  0  0  0  0  0  0  0  0  0  0
   36.3620   36.0890   15.8680 C   0  0  0  0  0  0  0  0  0  0  0  0
   32.2590   37.2660   28.1260 O   0  0  0  0  0  0  0  0  0  0  0  0
   34.4990   35.0420   21.3950 C   0  0  0  0  0  0  0  0  0  0  0  0
   35.5970   35.6350   16.9440 C   0  0  0  0  0  0  0  0  0  0  0  0
   34.0300   39.1640   23.8870 C   0  0  0  0  0  0  0  0  0  0  0  0
   33.2510   39.3100   26.3350 C   0  0  0  0  0  0  0  0  0  0  0  0
   34.7140   37.9080   21.5250 C   0  0  0  0  0  0  0  0  0  0  0  0
   35.1260   37.2250   20.3300 C   0  0  0  0  0  0  0  0  0  0  0  0
   37.6760   36.5010   16.1140 C   0  0  0  0  0  0  0  0  0  0  0  0
   38.2750   36.4470   17.3780 C   0  0  0  0  0  0  0  0  0  0  0  0
   37.5040   36.0090   18.4560 C   0  0  0  0  0  0  0  0  0  0  0  0
   34.2840   37.1690   22.6670 C   0  0  0  0  0  0  0  0  0  0  0  0
   34.7190   39.3240   21.6440 C   0  0  0  0  0  0  0  0  0  0  0  0
   35.0490   35.8740   20.2920 C   0  0  0  0  0  0  0  0  0  0  0  0
   36.1800   35.6130   18.2180 C   0  0  0  0  0  0  0  0  0  0  0  0
   33.7550   35.0100   23.8050 C   0  0  0  0  0  0  0  0  0  0  0  0
   34.5560   35.3390   16.7910 H   0  0  0  0  0  0  0  0  0  0  0  0
   38.3750   37.0150   15.1010 F   0  0  0  0  0  0  0  0  0  0  0  0
   35.3990   35.0360   19.2390 O   0  0  0  0  0  0  0  0  0  0  0  0
   34.3910   39.9610   22.7760 N   0  0  0  0  0  0  0  0  0  0  0  0
   34.2980   33.8480   21.3440 O   0  0  0  0  0  0  0  0  0  0  0  0
   34.1910   35.7690   22.5990 N   0  0  0  0  0  0  0  0  0  0  0  0
   33.9430   37.7880   23.8460 N   0  0  0  0  0  0  0  0  0  0  0  0
   33.7910   39.8520   25.0530 N   0  0  0  0  0  0  0  0  0  0  0  0
   35.1940   38.7340   27.1600 H   0  0  0  0  0  0  0  0  0  0  0  0
   34.3350   37.4020   26.2840 H   0  0  0  0  0  0  0  0  0  0  0  0
   34.1490   36.8930   28.6810 H   0  0  0  0  0  0  0  0  0  0  0  0
   33.5740   38.6030   29.0530 H   0  0  0  0  0  0  0  0  0  0  0  0
   31.2030   39.0630   28.2620 H   0  0  0  0  0  0  0  0  0  0  0  0
   30.4090   37.6180   27.4430 H   0  0  0  0  0  0  0  0  0  0  0  0
   31.8390   37.8820   25.4540 H   0  0  0  0  0  0  0  0  0  0  0  0
   31.1360   39.5140   25.8040 H   0  0  0  0  0  0  0  0  0  0  0  0
   35.9250   36.1440   14.8690 H   0  0  0  0  0  0  0  0  0  0  0  0
   33.2010   40.2160   27.0130 H   0  0  0  0  0  0  0  0  0  0  0  0
   35.4980   37.8240   19.4940 H   0  0  0  0  0  0  0  0  0  0  0  0
   39.3080   36.7710   17.5240 H   0  0  0  0  0  0  0  0  0  0  0  0
   37.9230   36.0060   19.4640 H   0  0  0  0  0  0  0  0  0  0  0  0
   34.9910   39.9460   20.7760 H   0  0  0  0  0  0  0  0  0  0  0  0
   34.4590   35.2140   24.6570 H   0  0  0  0  0  0  0  0  0  0  0  0
   32.7240   35.3340   24.1090 H   0  0  0  0  0  0  0  0  0  0  0  0
   33.7490   33.9100   23.5900 H   0  0  0  0  0  0  0  0  0  0  0  0
   33.8090   40.8930   25.0250 H   0  0  0  0  0  0  0  0  0  0  0  0
  1  2  1  0  0  0  0
  1 10  1  0  0  0  0
  1 29  1  0  0  0  0
  1 30  1  0  0  0  0
  2  6  1  0  0  0  0
  2 31  1  0  0  0  0
  2 32  1  0  0  0  0
  3  4  1  0  0  0  0
  3  6  1  0  0  0  0
  3 33  1  0  0  0  0
  3 34  1  0  0  0  0
  4 10  1  0  0  0  0
  4 35  1  0  0  0  0
  4 36  1  0  0  0  0
  5  8  2  0  0  0  0
  5 13  1  0  0  0  0
  5 37  1  0  0  0  0
  7 18  1  0  0  0  0
  7 25  2  0  0  0  0
  7 26  1  0  0  0  0
  8 19  1  0  0  0  0
  8 21  1  0  0  0  0
  9 24  2  0  0  0  0
  9 27  1  0  0  0  0
  9 28  1  0  0  0  0
 10 28  1  0  0  0  0
 10 38  1  0  0  0  0
 11 12  1  0  0  0  0
 11 16  1  0  0  0  0
 11 17  2  0  0  0  0
 12 18  2  0  0  0  0
 12 39  1  0  0  0  0
 13 14  2  0  0  0  0
 13 22  1  0  0  0  0
 14 15  1  0  0  0  0
 14 40  1  0  0  0  0
 15 19  2  0  0  0  0
 15 41  1  0  0  0  0
 16 26  1  0  0  0  0
 16 27  2  0  0  0  0
 17 24  1  0  0  0  0
 17 42  1  0  0  0  0
 18 23  1  0  0  0  0
 19 23  1  0  0  0  0
 20 26  1  0  0  0  0
 20 43  1  0  0  0  0
 20 44  1  0  0  0  0
 20 45  1  0  0  0  0
 28 46  1  0  0  0  0
M  END
$$$$
