ejm_50
 OpenBabel02232411173D
Structure written by MMmdl.
 33 34  0  0  0  0  0  0  0  0999 V2000
   -1.5700   21.5340  -27.5850 C   0  0  0  0  0  0  0  0  0  0  0  0
   -1.0830   22.6120  -28.3280 C   0  0  0  0  0  0  0  0  0  0  0  0
   -1.8810   23.1670  -29.3310 C   0  0  0  0  0  0  0  0  0  0  0  0
   -3.1560   22.6670  -29.6240 C   0  0  0  0  0  0  0  0  0  0  0  0
   -3.6210   21.5870  -28.8560 C   0  0  0  0  0  0  0  0  0  0  0  0
   -2.8450   21.0220  -27.8430 C   0  0  0  0  0  0  0  0  0  0  0  0
   -5.1750   20.9400  -29.1760 Cl  0  0  0  0  0  0  0  0  0  0  0  0
   -4.0140   23.1780  -30.7440 C   0  0  0  0  0  0  0  0  0  0  0  0
   -4.4130   22.4620  -31.6360 O   0  0  0  0  0  0  0  0  0  0  0  0
   -4.3330   24.5490  -30.6340 N   0  0  0  0  0  0  0  0  0  0  0  0
   -5.1820   25.2910  -31.5010 C   0  0  0  0  0  0  0  0  0  0  0  0
   -5.8410   24.7290  -32.6060 C   0  0  0  0  0  0  0  0  0  0  0  0
   -6.6980   25.5440  -33.3590 C   0  0  0  0  0  0  0  0  0  0  0  0
   -6.9090   26.8560  -33.0880 N   0  0  0  0  0  0  0  0  0  0  0  0
   -6.2420   27.3990  -32.0090 C   0  0  0  0  0  0  0  0  0  0  0  0
   -5.3740   26.6570  -31.1960 C   0  0  0  0  0  0  0  0  0  0  0  0
   -6.5380   28.7740  -31.7750 N   0  0  0  0  0  0  0  0  0  0  0  0
   -5.7550   29.6840  -31.0230 C   0  0  0  0  0  0  0  0  0  0  0  0
   -4.7630   29.3470  -30.4190 O   0  0  0  0  0  0  0  0  0  0  0  0
   -6.2930   31.1180  -31.0300 C   0  0  0  0  0  0  0  0  0  0  0  0
   -1.2550   24.5030  -30.2020 Cl  0  0  0  0  0  0  0  0  0  0  0  0
   -6.8190   31.4010  -31.9730 H   0  0  0  0  0  0  0  0  0  0  0  0
   -0.9500   21.0910  -26.7980 H   0  0  0  0  0  0  0  0  0  0  0  0
   -0.0890   23.0140  -28.1090 H   0  0  0  0  0  0  0  0  0  0  0  0
   -3.2180   20.1920  -27.2410 H   0  0  0  0  0  0  0  0  0  0  0  0
   -3.9340   25.0710  -29.8330 H   0  0  0  0  0  0  0  0  0  0  0  0
   -5.7210   23.6760  -32.8780 H   0  0  0  0  0  0  0  0  0  0  0  0
   -7.2500   25.1300  -34.2200 H   0  0  0  0  0  0  0  0  0  0  0  0
   -4.8610   27.1200  -30.3500 H   0  0  0  0  0  0  0  0  0  0  0  0
   -7.4350   29.1130  -32.1940 H   0  0  0  0  0  0  0  0  0  0  0  0
   -6.9730   31.3000  -30.1630 H   0  0  0  0  0  0  0  0  0  0  0  0
   -5.3440   32.8570  -31.0760 H   0  0  0  0  0  0  0  0  0  0  0  0
   -5.1030   31.9100  -30.8580 O   0  0  0  0  0  0  0  0  0  0  0  0
  1  2  2  0  0  0  0
  1  6  1  0  0  0  0
  1 23  1  0  0  0  0
  2  3  1  0  0  0  0
  2 24  1  0  0  0  0
  3  4  2  0  0  0  0
  3 21  1  0  0  0  0
  4  5  1  0  0  0  0
  4  8  1  0  0  0  0
  5  6  2  0  0  0  0
  5  7  1  0  0  0  0
  6 25  1  0  0  0  0
  8  9  2  0  0  0  0
  8 10  1  0  0  0  0
 10 11  1  0  0  0  0
 10 26  1  0  0  0  0
 11 12  2  0  0  0  0
 11 16  1  0  0  0  0
 12 13  1  0  0  0  0
 12 27  1  0  0  0  0
 13 14  2  0  0  0  0
 13 28  1  0  0  0  0
 14 15  1  0  0  0  0
 15 16  2  0  0  0  0
 15 17  1  0  0  0  0
 16 29  1  0  0  0  0
 17 18  1  0  0  0  0
 17 30  1  0  0  0  0
 18 19  2  0  0  0  0
 18 20  1  0  0  0  0
 20 22  1  0  0  0  0
 20 31  1  0  0  0  0
 20 33  1  0  0  0  0
 32 33  1  0  0  0  0
M  END
$$$$
