p38a_2aa
 OpenBabel02232411163D
Structure written by MMmdl.
 43 45  0  0  0  0  0  0  0  0999 V2000
   36.3810   36.0850   15.7430 C   0  0  0  0  0  0  0  0  0  0  0  0
   34.5790   34.9680   21.2590 C   0  0  0  0  0  0  0  0  0  0  0  0
   35.7250   35.5870   16.8650 C   0  0  0  0  0  0  0  0  0  0  0  0
   34.0390   39.0320   23.8250 C   0  0  0  0  0  0  0  0  0  0  0  0
   33.2340   38.9250   26.2010 C   0  0  0  0  0  0  0  0  0  0  0  0
   34.8130   37.8300   21.4710 C   0  0  0  0  0  0  0  0  0  0  0  0
   35.2670   37.1720   20.2750 C   0  0  0  0  0  0  0  0  0  0  0  0
   37.6720   36.5880   15.9450 C   0  0  0  0  0  0  0  0  0  0  0  0
   38.3160   36.5800   17.1850 C   0  0  0  0  0  0  0  0  0  0  0  0
   37.6220   36.1100   18.3060 C   0  0  0  0  0  0  0  0  0  0  0  0
   34.3500   37.0610   22.5790 C   0  0  0  0  0  0  0  0  0  0  0  0
   34.8210   39.2430   21.6260 C   0  0  0  0  0  0  0  0  0  0  0  0
   35.1850   35.8240   20.2040 C   0  0  0  0  0  0  0  0  0  0  0  0
   36.3260   35.6140   18.1400 C   0  0  0  0  0  0  0  0  0  0  0  0
   33.8010   34.8810   23.6600 C   0  0  0  0  0  0  0  0  0  0  0  0
   34.5130   35.0600   16.7580 F   0  0  0  0  0  0  0  0  0  0  0  0
   35.5970   34.9940   19.1630 O   0  0  0  0  0  0  0  0  0  0  0  0
   34.4570   39.8570   22.7620 N   0  0  0  0  0  0  0  0  0  0  0  0
   34.3520   33.7830   21.1570 O   0  0  0  0  0  0  0  0  0  0  0  0
   34.2570   35.6630   22.4770 N   0  0  0  0  0  0  0  0  0  0  0  0
   33.9800   37.6540   23.7610 N   0  0  0  0  0  0  0  0  0  0  0  0
   33.5870   39.6670   24.9620 N   0  0  0  0  0  0  0  0  0  0  0  0
   35.9050   36.1050   14.7600 H   0  0  0  0  0  0  0  0  0  0  0  0
   34.4670   38.6090   27.0770 C   0  0  0  0  0  0  0  0  0  0  0  0
   35.6770   37.7890   19.4720 H   0  0  0  0  0  0  0  0  0  0  0  0
   39.3350   36.9620   17.2910 H   0  0  0  0  0  0  0  0  0  0  0  0
   38.0890   36.1580   19.2920 H   0  0  0  0  0  0  0  0  0  0  0  0
   35.1350   39.8820   20.7850 H   0  0  0  0  0  0  0  0  0  0  0  0
   34.4580   35.1070   24.5440 H   0  0  0  0  0  0  0  0  0  0  0  0
   32.7450   35.1600   23.9240 H   0  0  0  0  0  0  0  0  0  0  0  0
   33.8500   33.7830   23.4420 H   0  0  0  0  0  0  0  0  0  0  0  0
   33.7970   40.6780   25.0960 H   0  0  0  0  0  0  0  0  0  0  0  0
   38.2980   37.1330   14.9050 F   0  0  0  0  0  0  0  0  0  0  0  0
   32.1970   39.8090   26.9490 C   0  0  0  0  0  0  0  0  0  0  0  0
   31.6230   39.1080   28.0530 O   0  0  0  0  0  0  0  0  0  0  0  0
   31.1250   38.3150   27.7310 H   0  0  0  0  0  0  0  0  0  0  0  0
   32.7020   40.6800   27.4340 H   0  0  0  0  0  0  0  0  0  0  0  0
   31.3910   40.1330   26.2510 H   0  0  0  0  0  0  0  0  0  0  0  0
   34.9800   39.8720   27.5560 O   0  0  0  0  0  0  0  0  0  0  0  0
   34.1590   37.9840   27.9500 H   0  0  0  0  0  0  0  0  0  0  0  0
   35.2660   38.1080   26.4840 H   0  0  0  0  0  0  0  0  0  0  0  0
   35.6890   39.7000   28.2200 H   0  0  0  0  0  0  0  0  0  0  0  0
   32.7600   37.9360   25.9250 H   0  0  0  0  0  0  0  0  0  0  0  0
  1  3  2  0  0  0  0
  1  8  1  0  0  0  0
  1 23  1  0  0  0  0
  2 13  1  0  0  0  0
  2 19  2  0  0  0  0
  2 20  1  0  0  0  0
  3 14  1  0  0  0  0
  3 16  1  0  0  0  0
  4 18  2  0  0  0  0
  4 21  1  0  0  0  0
  4 22  1  0  0  0  0
  5 22  1  0  0  0  0
  5 24  1  0  0  0  0
  5 34  1  0  0  0  0
  5 43  1  0  0  0  0
  6  7  1  0  0  0  0
  6 11  1  0  0  0  0
  6 12  2  0  0  0  0
  7 13  2  0  0  0  0
  7 25  1  0  0  0  0
  8  9  2  0  0  0  0
  8 33  1  0  0  0  0
  9 10  1  0  0  0  0
  9 26  1  0  0  0  0
 10 14  2  0  0  0  0
 10 27  1  0  0  0  0
 11 20  1  0  0  0  0
 11 21  2  0  0  0  0
 12 18  1  0  0  0  0
 12 28  1  0  0  0  0
 13 17  1  0  0  0  0
 14 17  1  0  0  0  0
 15 20  1  0  0  0  0
 15 29  1  0  0  0  0
 15 30  1  0  0  0  0
 15 31  1  0  0  0  0
 22 32  1  0  0  0  0
 24 39  1  0  0  0  0
 24 40  1  0  0  0  0
 24 41  1  0  0  0  0
 34 35  1  0  0  0  0
 34 37  1  0  0  0  0
 34 38  1  0  0  0  0
 35 36  1  0  0  0  0
 39 42  1  0  0  0  0
M  END
$$$$
