p38a_2z
 OpenBabel02232411163D
Structure written by MMmdl.
 45 47  0  0  0  0  0  0  0  0999 V2000
   38.2890   36.5760   17.1250 C   0  0  0  0  0  0  0  0  0  0  0  0
   34.4240   35.0580   21.0900 C   0  0  0  0  0  0  0  0  0  0  0  0
   37.4910   36.1130   18.1680 C   0  0  0  0  0  0  0  0  0  0  0  0
   33.7670   39.0480   23.7500 C   0  0  0  0  0  0  0  0  0  0  0  0
   32.7990   38.9680   26.1250 C   0  0  0  0  0  0  0  0  0  0  0  0
   34.5530   37.9280   21.3480 C   0  0  0  0  0  0  0  0  0  0  0  0
   35.0180   37.3060   20.1370 C   0  0  0  0  0  0  0  0  0  0  0  0
   37.6540   36.7560   15.8890 C   0  0  0  0  0  0  0  0  0  0  0  0
   36.3030   36.4760   15.6670 C   0  0  0  0  0  0  0  0  0  0  0  0
   35.5270   35.9970   16.7270 C   0  0  0  0  0  0  0  0  0  0  0  0
   34.0520   37.1270   22.4160 C   0  0  0  0  0  0  0  0  0  0  0  0
   34.5760   39.3330   21.5600 C   0  0  0  0  0  0  0  0  0  0  0  0
   34.9750   35.9580   20.0420 C   0  0  0  0  0  0  0  0  0  0  0  0
   36.1280   35.8060   17.9750 C   0  0  0  0  0  0  0  0  0  0  0  0
   33.4270   34.9210   23.4020 C   0  0  0  0  0  0  0  0  0  0  0  0
   38.0100   35.9560   19.3790 F   0  0  0  0  0  0  0  0  0  0  0  0
   35.3990   35.1600   18.9810 O   0  0  0  0  0  0  0  0  0  0  0  0
   34.2060   39.9040   22.7150 N   0  0  0  0  0  0  0  0  0  0  0  0
   34.3390   33.8510   21.0060 O   0  0  0  0  0  0  0  0  0  0  0  0
   33.9690   35.7310   22.2750 N   0  0  0  0  0  0  0  0  0  0  0  0
   33.6480   37.6820   23.6050 N   0  0  0  0  0  0  0  0  0  0  0  0
   33.5000   39.6400   24.9650 N   0  0  0  0  0  0  0  0  0  0  0  0
   39.3440   36.8240   17.2720 H   0  0  0  0  0  0  0  0  0  0  0  0
   33.6050   37.7570   26.6070 C   0  0  0  0  0  0  0  0  0  0  0  0
   35.3990   37.9480   19.3400 H   0  0  0  0  0  0  0  0  0  0  0  0
   35.8440   36.6380   14.6900 H   0  0  0  0  0  0  0  0  0  0  0  0
   34.4630   35.7890   16.5740 H   0  0  0  0  0  0  0  0  0  0  0  0
   34.9050   40.0040   20.7490 H   0  0  0  0  0  0  0  0  0  0  0  0
   34.1090   34.9940   24.2920 H   0  0  0  0  0  0  0  0  0  0  0  0
   32.4140   35.3060   23.6980 H   0  0  0  0  0  0  0  0  0  0  0  0
   33.3340   33.8460   23.0980 H   0  0  0  0  0  0  0  0  0  0  0  0
   33.5360   40.6810   25.0080 H   0  0  0  0  0  0  0  0  0  0  0  0
   38.3660   37.2570   14.8830 F   0  0  0  0  0  0  0  0  0  0  0  0
   32.7670   40.0560   27.2580 C   0  0  0  0  0  0  0  0  0  0  0  0
   31.3620   38.5970   25.7330 C   0  0  0  0  0  0  0  0  0  0  0  0
   32.0550   39.5810   28.4030 O   0  0  0  0  0  0  0  0  0  0  0  0
   32.5940   38.8950   28.8710 H   0  0  0  0  0  0  0  0  0  0  0  0
   33.7950   40.3670   27.5510 H   0  0  0  0  0  0  0  0  0  0  0  0
   32.1570   40.9320   26.9420 H   0  0  0  0  0  0  0  0  0  0  0  0
   30.7820   38.3710   26.6600 H   0  0  0  0  0  0  0  0  0  0  0  0
   30.8590   39.4370   25.2080 H   0  0  0  0  0  0  0  0  0  0  0  0
   31.3460   37.6970   25.0800 H   0  0  0  0  0  0  0  0  0  0  0  0
   33.1290   37.3090   27.5090 H   0  0  0  0  0  0  0  0  0  0  0  0
   33.6370   36.9560   25.8290 H   0  0  0  0  0  0  0  0  0  0  0  0
   34.6510   38.0470   26.8520 H   0  0  0  0  0  0  0  0  0  0  0  0
  1  3  2  0  0  0  0
  1  8  1  0  0  0  0
  1 23  1  0  0  0  0
  2 13  1  0  0  0  0
  2 19  2  0  0  0  0
  2 20  1  0  0  0  0
  3 14  1  0  0  0  0
  3 16  1  0  0  0  0
  4 18  2  0  0  0  0
  4 21  1  0  0  0  0
  4 22  1  0  0  0  0
  5 22  1  0  0  0  0
  5 24  1  0  0  0  0
  5 34  1  0  0  0  0
  5 35  1  0  0  0  0
  6  7  1  0  0  0  0
  6 11  1  0  0  0  0
  6 12  2  0  0  0  0
  7 13  2  0  0  0  0
  7 25  1  0  0  0  0
  8  9  2  0  0  0  0
  8 33  1  0  0  0  0
  9 10  1  0  0  0  0
  9 26  1  0  0  0  0
 10 14  2  0  0  0  0
 10 27  1  0  0  0  0
 11 20  1  0  0  0  0
 11 21  2  0  0  0  0
 12 18  1  0  0  0  0
 12 28  1  0  0  0  0
 13 17  1  0  0  0  0
 14 17  1  0  0  0  0
 15 20  1  0  0  0  0
 15 29  1  0  0  0  0
 15 30  1  0  0  0  0
 15 31  1  0  0  0  0
 22 32  1  0  0  0  0
 24 43  1  0  0  0  0
 24 44  1  0  0  0  0
 24 45  1  0  0  0  0
 34 36  1  0  0  0  0
 34 38  1  0  0  0  0
 34 39  1  0  0  0  0
 35 40  1  0  0  0  0
 35 41  1  0  0  0  0
 35 42  1  0  0  0  0
 36 37  1  0  0  0  0
M  END
$$$$
