p38a_2n
 OpenBabel02232411163D
Structure written by MMmdl.
 53 56  0  0  0  0  0  0  0  0999 V2000
   36.3560   36.0100   15.8590 C   0  0  0  0  0  0  0  0  0  0  0  0
   34.4810   35.0210   21.3610 C   0  0  0  0  0  0  0  0  0  0  0  0
   35.7040   35.5430   16.9960 C   0  0  0  0  0  0  0  0  0  0  0  0
   34.0460   39.1160   23.9040 C   0  0  0  0  0  0  0  0  0  0  0  0
   34.7730   37.8810   21.5470 C   0  0  0  0  0  0  0  0  0  0  0  0
   35.2510   37.1990   20.3740 C   0  0  0  0  0  0  0  0  0  0  0  0
   37.6470   36.5190   16.0450 C   0  0  0  0  0  0  0  0  0  0  0  0
   38.2960   36.5400   17.2830 C   0  0  0  0  0  0  0  0  0  0  0  0
   37.6060   36.0970   18.4170 C   0  0  0  0  0  0  0  0  0  0  0  0
   34.2530   37.1350   22.6450 C   0  0  0  0  0  0  0  0  0  0  0  0
   34.8090   39.2940   21.6940 C   0  0  0  0  0  0  0  0  0  0  0  0
   35.1480   35.8520   20.3190 C   0  0  0  0  0  0  0  0  0  0  0  0
   36.3090   35.5990   18.2680 C   0  0  0  0  0  0  0  0  0  0  0  0
   34.4910   35.0140   16.9070 F   0  0  0  0  0  0  0  0  0  0  0  0
   35.5870   35.0000   19.3080 O   0  0  0  0  0  0  0  0  0  0  0  0
   34.4590   39.9240   22.8260 N   0  0  0  0  0  0  0  0  0  0  0  0
   34.2650   33.8330   21.2710 O   0  0  0  0  0  0  0  0  0  0  0  0
   34.0580   35.7460   22.5300 N   0  0  0  0  0  0  0  0  0  0  0  0
   33.9160   37.7420   23.8270 N   0  0  0  0  0  0  0  0  0  0  0  0
   33.6930   39.7440   25.0770 N   0  0  0  0  0  0  0  0  0  0  0  0
   35.8790   36.0040   14.8760 H   0  0  0  0  0  0  0  0  0  0  0  0
   35.6950   37.8000   19.5760 H   0  0  0  0  0  0  0  0  0  0  0  0
   39.3160   36.9240   17.3740 H   0  0  0  0  0  0  0  0  0  0  0  0
   38.0770   36.1650   19.4000 H   0  0  0  0  0  0  0  0  0  0  0  0
   35.1350   39.9210   20.8490 H   0  0  0  0  0  0  0  0  0  0  0  0
   33.8570   40.7640   25.1790 H   0  0  0  0  0  0  0  0  0  0  0  0
   38.2720   37.0400   14.9910 F   0  0  0  0  0  0  0  0  0  0  0  0
   32.4170   39.1210   28.6240 C   0  0  0  0  0  0  0  0  0  0  0  0
   32.5450   39.8010   27.2560 C   0  0  0  0  0  0  0  0  0  0  0  0
   33.4930   38.9870   26.3510 C   0  0  0  0  0  0  0  0  0  0  0  0
   34.8460   38.7510   27.0600 C   0  0  0  0  0  0  0  0  0  0  0  0
   34.6100   38.1300   28.4430 C   0  0  0  0  0  0  0  0  0  0  0  0
   33.7090   38.9290   29.2440 O   0  0  0  0  0  0  0  0  0  0  0  0
   31.9070   38.1340   28.5330 H   0  0  0  0  0  0  0  0  0  0  0  0
   31.8990   39.7830   29.3560 H   0  0  0  0  0  0  0  0  0  0  0  0
   32.9400   40.8360   27.3910 H   0  0  0  0  0  0  0  0  0  0  0  0
   31.5400   39.8700   26.7740 H   0  0  0  0  0  0  0  0  0  0  0  0
   33.0170   37.9940   26.1110 H   0  0  0  0  0  0  0  0  0  0  0  0
   35.4720   38.0540   26.4520 H   0  0  0  0  0  0  0  0  0  0  0  0
   35.3930   39.7170   27.1650 H   0  0  0  0  0  0  0  0  0  0  0  0
   34.1930   37.1010   28.3480 H   0  0  0  0  0  0  0  0  0  0  0  0
   35.5410   38.1410   29.0540 H   0  0  0  0  0  0  0  0  0  0  0  0
   33.3870   35.0020   23.6460 C   0  0  0  0  0  0  0  0  0  0  0  0
   32.6210   35.6830   24.1190 H   0  0  0  0  0  0  0  0  0  0  0  0
   32.8530   34.1160   23.2050 H   0  0  0  0  0  0  0  0  0  0  0  0
   34.3850   34.5340   24.7160 C   0  0  0  0  0  0  0  0  0  0  0  0
   34.9750   33.6610   24.3500 H   0  0  0  0  0  0  0  0  0  0  0  0
   35.0960   35.3570   24.9730 H   0  0  0  0  0  0  0  0  0  0  0  0
   33.6220   34.1280   25.9900 C   0  0  0  0  0  0  0  0  0  0  0  0
   33.3920   35.0220   26.6160 H   0  0  0  0  0  0  0  0  0  0  0  0
   32.6970   33.5500   25.7600 H   0  0  0  0  0  0  0  0  0  0  0  0
   34.3930   33.2030   26.7740 O   0  0  0  0  0  0  0  0  0  0  0  0
   35.2280   33.6800   27.0930 H   0  0  0  0  0  0  0  0  0  0  0  0
  1  3  2  0  0  0  0
  1  7  1  0  0  0  0
  1 21  1  0  0  0  0
  2 12  1  0  0  0  0
  2 17  2  0  0  0  0
  2 18  1  0  0  0  0
  3 13  1  0  0  0  0
  3 14  1  0  0  0  0
  4 16  2  0  0  0  0
  4 19  1  0  0  0  0
  4 20  1  0  0  0  0
  5  6  1  0  0  0  0
  5 10  1  0  0  0  0
  5 11  2  0  0  0  0
  6 12  2  0  0  0  0
  6 22  1  0  0  0  0
  7  8  2  0  0  0  0
  7 27  1  0  0  0  0
  8  9  1  0  0  0  0
  8 23  1  0  0  0  0
  9 13  2  0  0  0  0
  9 24  1  0  0  0  0
 10 18  1  0  0  0  0
 10 19  2  0  0  0  0
 11 16  1  0  0  0  0
 11 25  1  0  0  0  0
 12 15  1  0  0  0  0
 13 15  1  0  0  0  0
 18 43  1  0  0  0  0
 20 26  1  0  0  0  0
 20 30  1  0  0  0  0
 28 29  1  0  0  0  0
 28 33  1  0  0  0  0
 28 34  1  0  0  0  0
 28 35  1  0  0  0  0
 29 30  1  0  0  0  0
 29 36  1  0  0  0  0
 29 37  1  0  0  0  0
 30 31  1  0  0  0  0
 30 38  1  0  0  0  0
 31 32  1  0  0  0  0
 31 39  1  0  0  0  0
 31 40  1  0  0  0  0
 32 33  1  0  0  0  0
 32 41  1  0  0  0  0
 32 42  1  0  0  0  0
 43 44  1  0  0  0  0
 43 45  1  0  0  0  0
 43 46  1  0  0  0  0
 46 47  1  0  0  0  0
 46 48  1  0  0  0  0
 46 49  1  0  0  0  0
 49 50  1  0  0  0  0
 49 51  1  0  0  0  0
 49 52  1  0  0  0  0
 52 53  1  0  0  0  0
M  END
$$$$
