p38a_2y
 OpenBabel02232411163D
Structure written by MMmdl.
 45 47  0  0  0  0  0  0  0  0999 V2000
   36.3860   36.0490   15.8000 C   0  0  0  0  0  0  0  0  0  0  0  0
   34.4890   34.9540   21.2580 C   0  0  0  0  0  0  0  0  0  0  0  0
   35.7420   35.5590   16.9320 C   0  0  0  0  0  0  0  0  0  0  0  0
   33.7460   39.0100   23.7810 C   0  0  0  0  0  0  0  0  0  0  0  0
   32.9170   38.9620   26.1460 C   0  0  0  0  0  0  0  0  0  0  0  0
   34.7120   37.8160   21.4920 C   0  0  0  0  0  0  0  0  0  0  0  0
   35.2500   37.1600   20.3290 C   0  0  0  0  0  0  0  0  0  0  0  0
   37.6730   36.5670   15.9900 C   0  0  0  0  0  0  0  0  0  0  0  0
   38.3250   36.5790   17.2260 C   0  0  0  0  0  0  0  0  0  0  0  0
   37.6420   36.1160   18.3560 C   0  0  0  0  0  0  0  0  0  0  0  0
   34.1530   37.0460   22.5550 C   0  0  0  0  0  0  0  0  0  0  0  0
   34.7270   39.2260   21.6610 C   0  0  0  0  0  0  0  0  0  0  0  0
   35.1650   35.8130   20.2460 C   0  0  0  0  0  0  0  0  0  0  0  0
   36.3500   35.6060   18.2040 C   0  0  0  0  0  0  0  0  0  0  0  0
   33.4750   34.8720   23.5700 C   0  0  0  0  0  0  0  0  0  0  0  0
   34.5350   35.0180   16.8400 F   0  0  0  0  0  0  0  0  0  0  0  0
   35.6420   34.9800   19.2380 O   0  0  0  0  0  0  0  0  0  0  0  0
   34.2720   39.8340   22.7680 N   0  0  0  0  0  0  0  0  0  0  0  0
   34.2890   33.7650   21.1440 O   0  0  0  0  0  0  0  0  0  0  0  0
   34.0570   35.6500   22.4400 N   0  0  0  0  0  0  0  0  0  0  0  0
   33.6870   37.6350   23.7050 N   0  0  0  0  0  0  0  0  0  0  0  0
   33.1580   39.6550   24.8580 N   0  0  0  0  0  0  0  0  0  0  0  0
   35.9060   36.0510   14.8190 H   0  0  0  0  0  0  0  0  0  0  0  0
   32.9200   37.8450   26.0090 H   0  0  0  0  0  0  0  0  0  0  0  0
   35.7180   37.7790   19.5600 H   0  0  0  0  0  0  0  0  0  0  0  0
   39.3410   36.9710   17.3200 H   0  0  0  0  0  0  0  0  0  0  0  0
   38.1150   36.1780   19.3390 H   0  0  0  0  0  0  0  0  0  0  0  0
   35.1280   39.8700   20.8610 H   0  0  0  0  0  0  0  0  0  0  0  0
   34.0730   35.0520   24.5050 H   0  0  0  0  0  0  0  0  0  0  0  0
   32.4170   35.2000   23.7600 H   0  0  0  0  0  0  0  0  0  0  0  0
   33.4860   33.7760   23.3350 H   0  0  0  0  0  0  0  0  0  0  0  0
   33.3570   40.6690   24.9660 H   0  0  0  0  0  0  0  0  0  0  0  0
   38.2890   37.1050   14.9400 F   0  0  0  0  0  0  0  0  0  0  0  0
   33.9460   39.3410   27.2620 C   0  0  0  0  0  0  0  0  0  0  0  0
   31.8840   39.2660   26.4780 H   0  0  0  0  0  0  0  0  0  0  0  0
   35.3890   39.3560   26.7460 C   0  0  0  0  0  0  0  0  0  0  0  0
   33.6270   40.6610   27.7720 O   0  0  0  0  0  0  0  0  0  0  0  0
   33.7630   38.4230   28.4720 C   0  0  0  0  0  0  0  0  0  0  0  0
   33.6090   41.3110   27.0080 H   0  0  0  0  0  0  0  0  0  0  0  0
   36.0990   39.4550   27.5980 H   0  0  0  0  0  0  0  0  0  0  0  0
   35.6200   38.4110   26.2070 H   0  0  0  0  0  0  0  0  0  0  0  0
   35.5440   40.2200   26.0640 H   0  0  0  0  0  0  0  0  0  0  0  0
   34.3210   38.8220   29.3500 H   0  0  0  0  0  0  0  0  0  0  0  0
   32.6870   38.3370   28.7530 H   0  0  0  0  0  0  0  0  0  0  0  0
   34.1500   37.4010   28.2430 H   0  0  0  0  0  0  0  0  0  0  0  0
  1  3  2  0  0  0  0
  1  8  1  0  0  0  0
  1 23  1  0  0  0  0
  2 13  1  0  0  0  0
  2 19  2  0  0  0  0
  2 20  1  0  0  0  0
  3 14  1  0  0  0  0
  3 16  1  0  0  0  0
  4 18  2  0  0  0  0
  4 21  1  0  0  0  0
  4 22  1  0  0  0  0
  5 22  1  0  0  0  0
  5 24  1  0  0  0  0
  5 34  1  0  0  0  0
  5 35  1  0  0  0  0
  6  7  1  0  0  0  0
  6 11  1  0  0  0  0
  6 12  2  0  0  0  0
  7 13  2  0  0  0  0
  7 25  1  0  0  0  0
  8  9  2  0  0  0  0
  8 33  1  0  0  0  0
  9 10  1  0  0  0  0
  9 26  1  0  0  0  0
 10 14  2  0  0  0  0
 10 27  1  0  0  0  0
 11 20  1  0  0  0  0
 11 21  2  0  0  0  0
 12 18  1  0  0  0  0
 12 28  1  0  0  0  0
 13 17  1  0  0  0  0
 14 17  1  0  0  0  0
 15 20  1  0  0  0  0
 15 29  1  0  0  0  0
 15 30  1  0  0  0  0
 15 31  1  0  0  0  0
 22 32  1  0  0  0  0
 34 36  1  0  0  0  0
 34 37  1  0  0  0  0
 34 38  1  0  0  0  0
 36 40  1  0  0  0  0
 36 41  1  0  0  0  0
 36 42  1  0  0  0  0
 37 39  1  0  0  0  0
 38 43  1  0  0  0  0
 38 44  1  0  0  0  0
 38 45  1  0  0  0  0
M  END
$$$$
