p38a_3flw
 OpenBabel02232411163D
Structure written by MMmdl.
 49 51  0  0  0  0  0  0  0  0999 V2000
   36.3480   35.9850   15.8550 C   0  0  0  0  0  0  0  0  0  0  0  0
   37.6380   36.4870   16.0670 C   0  0  0  0  0  0  0  0  0  0  0  0
   34.2660   39.7630   27.5820 C   0  0  0  0  0  0  0  0  0  0  0  0
   33.8400   39.2090   28.9460 C   0  0  0  0  0  0  0  0  0  0  0  0
   32.0010   39.4230   26.4240 C   0  0  0  0  0  0  0  0  0  0  0  0
   33.9990   34.9990   23.8970 C   0  0  0  0  0  0  0  0  0  0  0  0
   34.4540   35.0050   16.8680 F   0  0  0  0  0  0  0  0  0  0  0  0
   35.6680   35.5260   16.9790 C   0  0  0  0  0  0  0  0  0  0  0  0
   38.2850   37.0060   15.0250 F   0  0  0  0  0  0  0  0  0  0  0  0
   38.2630   36.5050   17.3170 C   0  0  0  0  0  0  0  0  0  0  0  0
   37.5460   36.0690   18.4380 C   0  0  0  0  0  0  0  0  0  0  0  0
   36.2470   35.5850   18.2640 C   0  0  0  0  0  0  0  0  0  0  0  0
   35.4860   35.0090   19.2900 O   0  0  0  0  0  0  0  0  0  0  0  0
   35.1340   35.8630   20.3330 C   0  0  0  0  0  0  0  0  0  0  0  0
   35.2250   37.2120   20.3650 C   0  0  0  0  0  0  0  0  0  0  0  0
   34.8460   37.9000   21.5690 C   0  0  0  0  0  0  0  0  0  0  0  0
   34.8320   39.3150   21.6790 C   0  0  0  0  0  0  0  0  0  0  0  0
   34.5530   39.9580   22.8240 N   0  0  0  0  0  0  0  0  0  0  0  0
   34.5750   35.0410   21.4410 C   0  0  0  0  0  0  0  0  0  0  0  0
   34.3020   33.8640   21.3760 O   0  0  0  0  0  0  0  0  0  0  0  0
   34.3540   35.7640   22.6690 N   0  0  0  0  0  0  0  0  0  0  0  0
   34.4730   37.1590   22.7300 C   0  0  0  0  0  0  0  0  0  0  0  0
   34.1940   37.7860   23.9210 N   0  0  0  0  0  0  0  0  0  0  0  0
   34.2780   39.1650   23.9520 C   0  0  0  0  0  0  0  0  0  0  0  0
   34.1270   39.8170   25.1580 N   0  0  0  0  0  0  0  0  0  0  0  0
   33.5240   39.1630   26.3640 C   0  0  0  0  0  0  0  0  0  0  0  0
   31.2070   39.0100   25.1750 C   0  0  0  0  0  0  0  0  0  0  0  0
   31.3170   37.6130   24.8760 O   0  0  0  0  0  0  0  0  0  0  0  0
   34.2470   37.8470   29.1550 O   0  0  0  0  0  0  0  0  0  0  0  0
   35.8910   35.9800   14.8620 H   0  0  0  0  0  0  0  0  0  0  0  0
   34.0990   40.8720   27.6030 H   0  0  0  0  0  0  0  0  0  0  0  0
   35.3630   39.5890   27.4440 H   0  0  0  0  0  0  0  0  0  0  0  0
   34.3810   39.7580   29.7570 H   0  0  0  0  0  0  0  0  0  0  0  0
   32.7390   39.2850   29.0940 H   0  0  0  0  0  0  0  0  0  0  0  0
   31.5920   38.8690   27.3030 H   0  0  0  0  0  0  0  0  0  0  0  0
   31.8390   40.5170   26.5910 H   0  0  0  0  0  0  0  0  0  0  0  0
   34.5880   35.3840   24.7750 H   0  0  0  0  0  0  0  0  0  0  0  0
   32.9060   35.1110   24.1190 H   0  0  0  0  0  0  0  0  0  0  0  0
   34.2390   33.9120   23.7560 H   0  0  0  0  0  0  0  0  0  0  0  0
   39.2830   36.8830   17.4270 H   0  0  0  0  0  0  0  0  0  0  0  0
   37.9980   36.1370   19.4300 H   0  0  0  0  0  0  0  0  0  0  0  0
   35.5910   37.8100   19.5270 H   0  0  0  0  0  0  0  0  0  0  0  0
   35.0410   39.9370   20.7930 H   0  0  0  0  0  0  0  0  0  0  0  0
   34.0330   40.8540   25.1600 H   0  0  0  0  0  0  0  0  0  0  0  0
   33.7200   38.0590   26.3220 H   0  0  0  0  0  0  0  0  0  0  0  0
   30.1160   39.1450   25.3580 H   0  0  0  0  0  0  0  0  0  0  0  0
   31.5420   39.5930   24.2880 H   0  0  0  0  0  0  0  0  0  0  0  0
   32.2710   37.4040   24.7250 H   0  0  0  0  0  0  0  0  0  0  0  0
   33.8470   37.2780   28.4510 H   0  0  0  0  0  0  0  0  0  0  0  0
  1  2  2  0  0  0  0
  1  8  1  0  0  0  0
  1 30  1  0  0  0  0
  2  9  1  0  0  0  0
  2 10  1  0  0  0  0
  3  4  1  0  0  0  0
  3 26  1  0  0  0  0
  3 31  1  0  0  0  0
  3 32  1  0  0  0  0
  4 29  1  0  0  0  0
  4 33  1  0  0  0  0
  4 34  1  0  0  0  0
  5 26  1  0  0  0  0
  5 27  1  0  0  0  0
  5 35  1  0  0  0  0
  5 36  1  0  0  0  0
  6 21  1  0  0  0  0
  6 37  1  0  0  0  0
  6 38  1  0  0  0  0
  6 39  1  0  0  0  0
  7  8  1  0  0  0  0
  8 12  2  0  0  0  0
 10 11  2  0  0  0  0
 10 40  1  0  0  0  0
 11 12  1  0  0  0  0
 11 41  1  0  0  0  0
 12 13  1  0  0  0  0
 13 14  1  0  0  0  0
 14 15  2  0  0  0  0
 14 19  1  0  0  0  0
 15 16  1  0  0  0  0
 15 42  1  0  0  0  0
 16 17  2  0  0  0  0
 16 22  1  0  0  0  0
 17 18  1  0  0  0  0
 17 43  1  0  0  0  0
 18 24  2  0  0  0  0
 19 20  2  0  0  0  0
 19 21  1  0  0  0  0
 21 22  1  0  0  0  0
 22 23  2  0  0  0  0
 23 24  1  0  0  0  0
 24 25  1  0  0  0  0
 25 26  1  0  0  0  0
 25 44  1  0  0  0  0
 26 45  1  0  0  0  0
 27 28  1  0  0  0  0
 27 46  1  0  0  0  0
 27 47  1  0  0  0  0
 28 48  1  0  0  0  0
 29 49  1  0  0  0  0
M  END
$$$$
