CAT-13i
 OpenBabel02232411143D
Structure written by MMmdl.
 46 49  0  0  1  0  0  0  0  0999 V2000
   11.7760   -1.8510    1.1880 C   0  0  0  0  0  0  0  0  0  0  0  0
   13.0670   -2.2510    0.5980 N   0  0  0  0  0  0  0  0  0  0  0  0
   14.2460   -2.3660    1.3450 C   0  0  0  0  0  0  0  0  0  0  0  0
   14.3480   -2.3720    2.7020 N   0  0  0  0  0  0  0  0  0  0  0  0
   15.3280   -2.5700    0.4920 N   0  3  0  0  0  0  0  0  0  0  0  0
   14.8490   -2.8680   -0.9060 C   0  0  2  0  0  0  0  0  0  0  0  0
   15.1090   -4.3310   -1.2800 C   0  0  0  0  0  0  0  0  0  0  0  0
   14.6920   -5.4500   -0.3390 C   0  0  0  0  0  0  0  0  0  0  0  0
   13.7360   -5.4190    0.8470 C   0  0  0  0  0  0  0  0  0  0  0  0
   13.3240   -6.1200   -0.4230 C   0  0  0  0  0  0  0  0  0  0  0  0
   15.4170   -1.8150   -1.8530 C   0  0  0  0  0  0  0  0  0  0  0  0
   16.0840   -2.1450   -3.0370 C   0  0  0  0  0  0  0  0  0  0  0  0
   16.5340   -1.1250   -3.8840 C   0  0  0  0  0  0  0  0  0  0  0  0
   16.3270    0.2180   -3.5670 C   0  0  0  0  0  0  0  0  0  0  0  0
   15.6660    0.5660   -2.3760 C   0  0  0  0  0  0  0  0  0  0  0  0
   15.4200    1.9810   -2.0100 C   0  0  0  0  0  0  0  0  0  0  0  0
   15.0040    2.9180   -2.9700 C   0  0  0  0  0  0  0  0  0  0  0  0
   14.6930    4.2290   -2.5900 C   0  0  0  0  0  0  0  0  0  0  0  0
   14.7730    4.6220   -1.2500 C   0  0  0  0  0  0  0  0  0  0  0  0
   15.2030    3.6840   -0.3090 C   0  0  0  0  0  0  0  0  0  0  0  0
   15.2430    4.1090    1.3630 Cl  0  0  0  0  0  0  0  0  0  0  0  0
   15.5550    2.3840   -0.6710 C   0  0  0  0  0  0  0  0  0  0  0  0
   15.2130   -0.4600   -1.5330 C   0  0  0  0  0  0  0  0  0  0  0  0
   13.3120   -2.6010   -0.8080 C   0  0  0  0  0  0  0  0  0  0  0  0
   12.4470   -2.6150   -1.6250 O   0  0  0  0  0  0  0  0  0  0  0  0
   11.6420   -2.3290    2.1950 H   0  0  0  0  0  0  0  0  0  0  0  0
   11.7680   -0.7350    1.2950 H   0  0  0  0  0  0  0  0  0  0  0  0
   10.9390   -2.1800    0.5180 H   0  0  0  0  0  0  0  0  0  0  0  0
   13.6240   -1.9350    3.3190 H   0  0  0  0  0  0  0  0  0  0  0  0
   16.2200   -2.9790    0.8720 H   0  0  0  0  0  0  0  0  0  0  0  0
   16.2210   -4.4320   -1.4290 H   0  0  0  0  0  0  0  0  0  0  0  0
   14.6070   -4.5280   -2.2670 H   0  0  0  0  0  0  0  0  0  0  0  0
   15.5510   -6.1330   -0.2090 H   0  0  0  0  0  0  0  0  0  0  0  0
   14.0110   -6.0270    1.7230 H   0  0  0  0  0  0  0  0  0  0  0  0
   13.1890   -4.5330    1.1560 H   0  0  0  0  0  0  0  0  0  0  0  0
   12.5530   -5.6620   -1.0520 H   0  0  0  0  0  0  0  0  0  0  0  0
   13.2780   -7.2180   -0.4300 H   0  0  0  0  0  0  0  0  0  0  0  0
   16.2560   -3.1840   -3.3180 H   0  0  0  0  0  0  0  0  0  0  0  0
   17.0600   -1.3820   -4.8090 H   0  0  0  0  0  0  0  0  0  0  0  0
   16.6810    0.9940   -4.2520 H   0  0  0  0  0  0  0  0  0  0  0  0
   14.9030    2.6240   -4.0200 H   0  0  0  0  0  0  0  0  0  0  0  0
   14.3610    4.9470   -3.3500 H   0  0  0  0  0  0  0  0  0  0  0  0
   14.4840    5.6320   -0.9500 H   0  0  0  0  0  0  0  0  0  0  0  0
   15.9130    1.6750    0.0760 H   0  0  0  0  0  0  0  0  0  0  0  0
   14.6920   -0.2080   -0.6120 H   0  0  0  0  0  0  0  0  0  0  0  0
   15.3090   -2.3850    3.1390 H   0  0  0  0  0  0  0  0  0  0  0  0
  1  2  1  0  0  0  0
  1 26  1  0  0  0  0
  1 27  1  0  0  0  0
  1 28  1  0  0  0  0
  2  3  1  0  0  0  0
  2 24  1  0  0  0  0
  3  4  1  0  0  0  0
  3  5  2  0  0  0  0
  4 29  1  0  0  0  0
  4 46  1  0  0  0  0
  5  6  1  0  0  0  0
  5 30  1  0  0  0  0
  6  7  1  6  0  0  0
  6 11  1  0  0  0  0
  6 24  1  0  0  0  0
  7  8  1  0  0  0  0
  7 31  1  0  0  0  0
  7 32  1  0  0  0  0
  8  9  1  0  0  0  0
  8 10  1  0  0  0  0
  8 33  1  0  0  0  0
  9 10  1  0  0  0  0
  9 34  1  0  0  0  0
  9 35  1  0  0  0  0
 10 36  1  0  0  0  0
 10 37  1  0  0  0  0
 11 12  2  0  0  0  0
 11 23  1  0  0  0  0
 12 13  1  0  0  0  0
 12 38  1  0  0  0  0
 13 14  2  0  0  0  0
 13 39  1  0  0  0  0
 14 15  1  0  0  0  0
 14 40  1  0  0  0  0
 15 16  1  0  0  0  0
 15 23  2  0  0  0  0
 16 17  2  0  0  0  0
 16 22  1  0  0  0  0
 17 18  1  0  0  0  0
 17 41  1  0  0  0  0
 18 19  2  0  0  0  0
 18 42  1  0  0  0  0
 19 20  1  0  0  0  0
 19 43  1  0  0  0  0
 20 21  1  0  0  0  0
 20 22  2  0  0  0  0
 22 44  1  0  0  0  0
 23 45  1  0  0  0  0
 24 25  2  0  0  0  0
M  CHG  1   5   1
M  END
$$$$
