18629-1
 OpenBabel02232411163D
Structure written by MMmdl.
 41 42  0  0  0  0  0  0  0  0999 V2000
   24.4460   11.0590   30.7860 C   0  0  0  0  0  0  0  0  0  0  0  0
   23.1040   11.2690   30.1180 C   0  0  0  0  0  0  0  0  0  0  0  0
   22.0270   11.2900   31.1300 O   0  0  0  0  0  0  0  0  0  0  0  0
   21.4610   10.1280   31.5260 C   0  0  0  0  0  0  0  0  0  0  0  0
   21.9480    8.9490   31.0760 N   0  0  0  0  0  0  0  0  0  0  0  0
   21.2660    7.7950   31.4350 C   0  0  0  0  0  0  0  0  0  0  0  0
   20.1390    7.8090   32.2510 C   0  0  0  0  0  0  0  0  0  0  0  0
   19.6390    9.0520   32.7260 C   0  0  0  0  0  0  0  0  0  0  0  0
   18.5040    9.0800   33.4940 N   0  0  0  0  0  0  0  0  0  0  0  0
   20.3160   10.2610   32.3690 C   0  0  0  0  0  0  0  0  0  0  0  0
   19.8970   11.5520   32.7540 C   0  0  0  0  0  0  0  0  0  0  0  0
   19.6050   12.6400   33.0300 N   0  0  0  0  0  0  0  0  0  0  0  0
   21.8460    6.6430   30.8530 N   0  0  0  0  0  0  0  0  0  0  0  0
   21.3300    5.3210   30.8680 C   0  0  0  0  0  0  0  0  0  0  0  0
   20.3100    5.0240   31.4510 O   0  0  0  0  0  0  0  0  0  0  0  0
   22.1570    4.3490   30.0410 C   0  0  0  0  0  0  0  0  0  0  0  0
   23.5000    4.0830   30.6700 C   0  0  0  0  0  0  0  0  0  0  0  0
   23.6230    3.0930   31.6540 C   0  0  0  0  0  0  0  0  0  0  0  0
   24.8540    2.8710   32.2890 C   0  0  0  0  0  0  0  0  0  0  0  0
   24.9850    1.8490   33.3700 C   0  0  0  0  0  0  0  0  0  0  0  0
   25.9740    3.6290   31.9040 C   0  0  0  0  0  0  0  0  0  0  0  0
   25.8570    4.5920   30.9020 C   0  0  0  0  0  0  0  0  0  0  0  0
   24.6250    4.8250   30.2830 C   0  0  0  0  0  0  0  0  0  0  0  0
   24.4690   10.0970   31.3510 H   0  0  0  0  0  0  0  0  0  0  0  0
   24.6830   11.8940   31.4800 H   0  0  0  0  0  0  0  0  0  0  0  0
   25.2430   11.0090   30.0020 H   0  0  0  0  0  0  0  0  0  0  0  0
   22.9920   12.3020   29.7080 H   0  0  0  0  0  0  0  0  0  0  0  0
   22.8870   10.4940   29.3500 H   0  0  0  0  0  0  0  0  0  0  0  0
   19.6210    6.8850   32.5160 H   0  0  0  0  0  0  0  0  0  0  0  0
   18.0180    8.2040   33.7690 H   0  0  0  0  0  0  0  0  0  0  0  0
   18.0950    9.9610   33.8070 H   0  0  0  0  0  0  0  0  0  0  0  0
   22.7240    6.8180   30.3230 H   0  0  0  0  0  0  0  0  0  0  0  0
   21.5910    3.3850   29.9470 H   0  0  0  0  0  0  0  0  0  0  0  0
   22.2910    4.7710   29.0110 H   0  0  0  0  0  0  0  0  0  0  0  0
   22.7620    2.4800   31.9220 H   0  0  0  0  0  0  0  0  0  0  0  0
   25.1640    2.3520   34.3530 H   0  0  0  0  0  0  0  0  0  0  0  0
   24.0720    1.2140   33.4660 H   0  0  0  0  0  0  0  0  0  0  0  0
   25.8530    1.1700   33.1700 H   0  0  0  0  0  0  0  0  0  0  0  0
   26.9400    3.4630   32.3880 H   0  0  0  0  0  0  0  0  0  0  0  0
   26.7340    5.1710   30.5960 H   0  0  0  0  0  0  0  0  0  0  0  0
   24.5610    5.5820   29.4990 H   0  0  0  0  0  0  0  0  0  0  0  0
  1  2  1  0  0  0  0
  1 24  1  0  0  0  0
  1 25  1  0  0  0  0
  1 26  1  0  0  0  0
  2  3  1  0  0  0  0
  2 27  1  0  0  0  0
  2 28  1  0  0  0  0
  3  4  1  0  0  0  0
  4 10  2  0  0  0  0
  4  5  1  0  0  0  0
  5  6  2  0  0  0  0
  6  7  1  0  0  0  0
  6 13  1  0  0  0  0
  7  8  2  0  0  0  0
  7 29  1  0  0  0  0
  8  9  1  0  0  0  0
  8 10  1  0  0  0  0
  9 30  1  0  0  0  0
  9 31  1  0  0  0  0
 10 11  1  0  0  0  0
 11 12  3  0  0  0  0
 13 14  1  0  0  0  0
 13 32  1  0  0  0  0
 14 15  2  0  0  0  0
 14 16  1  0  0  0  0
 16 17  1  0  0  0  0
 16 33  1  0  0  0  0
 16 34  1  0  0  0  0
 17 23  2  0  0  0  0
 17 18  1  0  0  0  0
 18 19  2  0  0  0  0
 18 35  1  0  0  0  0
 19 20  1  0  0  0  0
 19 21  1  0  0  0  0
 20 36  1  0  0  0  0
 20 37  1  0  0  0  0
 20 38  1  0  0  0  0
 21 22  2  0  0  0  0
 21 39  1  0  0  0  0
 22 23  1  0  0  0  0
 22 40  1  0  0  0  0
 23 41  1  0  0  0  0
M  END
$$$$
