18624-1
 OpenBabel02232411163D
Structure written by MMmdl.
 38 39  0  0  0  0  0  0  0  0999 V2000
   23.8420   12.5890   30.3380 C   0  0  0  0  0  0  0  0  0  0  0  0
   23.3980   11.1440   30.4530 C   0  0  0  0  0  0  0  0  0  0  0  0
   22.1510   11.2410   31.2550 O   0  0  0  0  0  0  0  0  0  0  0  0
   21.5150   10.1040   31.6030 C   0  0  0  0  0  0  0  0  0  0  0  0
   21.9940    8.9120   31.1740 N   0  0  0  0  0  0  0  0  0  0  0  0
   21.2690    7.7770   31.5070 C   0  0  0  0  0  0  0  0  0  0  0  0
   20.1150    7.8220   32.2820 C   0  0  0  0  0  0  0  0  0  0  0  0
   19.6240    9.0760   32.7330 C   0  0  0  0  0  0  0  0  0  0  0  0
   18.4750    9.1240   33.4800 N   0  0  0  0  0  0  0  0  0  0  0  0
   20.3310   10.2700   32.3830 C   0  0  0  0  0  0  0  0  0  0  0  0
   19.9110   11.5720   32.7250 C   0  0  0  0  0  0  0  0  0  0  0  0
   19.6130   12.6680   32.9640 N   0  0  0  0  0  0  0  0  0  0  0  0
   21.8420    6.6030   30.9590 N   0  0  0  0  0  0  0  0  0  0  0  0
   21.2660    5.3110   30.9550 C   0  0  0  0  0  0  0  0  0  0  0  0
   20.1890    5.0850   31.4700 O   0  0  0  0  0  0  0  0  0  0  0  0
   22.0440    4.2540   30.1930 C   0  0  0  0  0  0  0  0  0  0  0  0
   23.5400    4.3170   30.3470 C   0  0  0  0  0  0  0  0  0  0  0  0
   24.3160    5.0990   29.4760 C   0  0  0  0  0  0  0  0  0  0  0  0
   25.7040    5.1510   29.6260 C   0  0  0  0  0  0  0  0  0  0  0  0
   26.3310    4.4220   30.6420 C   0  0  0  0  0  0  0  0  0  0  0  0
   25.5620    3.6380   31.5070 C   0  0  0  0  0  0  0  0  0  0  0  0
   24.1730    3.5820   31.3610 C   0  0  0  0  0  0  0  0  0  0  0  0
   24.7520   12.6330   29.6880 H   0  0  0  0  0  0  0  0  0  0  0  0
   23.0490   13.2160   29.8660 H   0  0  0  0  0  0  0  0  0  0  0  0
   24.0950   13.0190   31.3330 H   0  0  0  0  0  0  0  0  0  0  0  0
   23.1300   10.7010   29.4680 H   0  0  0  0  0  0  0  0  0  0  0  0
   24.1250   10.5160   31.0150 H   0  0  0  0  0  0  0  0  0  0  0  0
   19.5650    6.9110   32.5350 H   0  0  0  0  0  0  0  0  0  0  0  0
   17.9760    8.2540   33.7490 H   0  0  0  0  0  0  0  0  0  0  0  0
   18.0720   10.0120   33.7810 H   0  0  0  0  0  0  0  0  0  0  0  0
   22.7480    6.7440   30.4710 H   0  0  0  0  0  0  0  0  0  0  0  0
   21.6920    3.2430   30.5420 H   0  0  0  0  0  0  0  0  0  0  0  0
   21.7610    4.3600   29.1120 H   0  0  0  0  0  0  0  0  0  0  0  0
   23.8490    5.6810   28.6810 H   0  0  0  0  0  0  0  0  0  0  0  0
   26.3030    5.7670   28.9490 H   0  0  0  0  0  0  0  0  0  0  0  0
   27.4170    4.4650   30.7570 H   0  0  0  0  0  0  0  0  0  0  0  0
   26.0500    3.0630   32.3000 H   0  0  0  0  0  0  0  0  0  0  0  0
   23.5910    2.9520   32.0370 H   0  0  0  0  0  0  0  0  0  0  0  0
  1  2  1  0  0  0  0
  1 23  1  0  0  0  0
  1 24  1  0  0  0  0
  1 25  1  0  0  0  0
  2  3  1  0  0  0  0
  2 26  1  0  0  0  0
  2 27  1  0  0  0  0
  3  4  1  0  0  0  0
  4 10  2  0  0  0  0
  4  5  1  0  0  0  0
  5  6  2  0  0  0  0
  6  7  1  0  0  0  0
  6 13  1  0  0  0  0
  7  8  2  0  0  0  0
  7 28  1  0  0  0  0
  8  9  1  0  0  0  0
  8 10  1  0  0  0  0
  9 29  1  0  0  0  0
  9 30  1  0  0  0  0
 10 11  1  0  0  0  0
 11 12  3  0  0  0  0
 13 14  1  0  0  0  0
 13 31  1  0  0  0  0
 14 15  2  0  0  0  0
 14 16  1  0  0  0  0
 16 17  1  0  0  0  0
 16 32  1  0  0  0  0
 16 33  1  0  0  0  0
 17 22  2  0  0  0  0
 17 18  1  0  0  0  0
 18 19  2  0  0  0  0
 18 34  1  0  0  0  0
 19 20  1  0  0  0  0
 19 35  1  0  0  0  0
 20 21  2  0  0  0  0
 20 36  1  0  0  0  0
 21 22  1  0  0  0  0
 21 37  1  0  0  0  0
 22 38  1  0  0  0  0
M  END
$$$$
