52
 OpenBabel04222415263D
Structure written by MMmdl.
 41 43  0  0  0  0  0  0  0  0999 V2000
    3.9580  -49.9370    6.0630 O   0  0  0  0  0  0  0  0  0  0  0  0
    3.1930  -49.0920    6.5650 C   0  0  0  0  0  0  0  0  0  0  0  0
    3.5080  -48.0860    7.2120 O   0  5  0  0  0  0  0  0  0  0  0  0
    1.6900  -49.3640    6.3660 C   0  0  0  0  0  0  0  0  0  0  0  0
   -0.2050  -50.6390    6.4260 C   0  0  0  0  0  0  0  0  0  0  0  0
   -1.1630  -51.6530    6.5980 C   0  0  0  0  0  0  0  0  0  0  0  0
   -2.4530  -51.3190    6.2310 C   0  0  0  0  0  0  0  0  0  0  0  0
   -2.8380  -50.0650    5.7170 C   0  0  0  0  0  0  0  0  0  0  0  0
   -1.8830  -49.0690    5.5540 C   0  0  0  0  0  0  0  0  0  0  0  0
   -0.5520  -49.3350    5.9080 C   0  0  0  0  0  0  0  0  0  0  0  0
    0.6660  -48.5540    5.8930 C   0  0  0  0  0  0  0  0  0  0  0  0
    0.7180  -47.1350    5.4550 C   0  0  0  0  0  0  0  0  0  0  0  0
    0.6000  -46.1540    6.6350 C   0  0  0  0  0  0  0  0  0  0  0  0
   -0.7290  -46.2460    7.3770 C   0  0  0  0  0  0  0  0  0  0  0  0
   -1.7160  -45.7040    6.4200 O   0  0  0  0  0  0  0  0  0  0  0  0
   -2.9820  -45.4850    6.8670 C   0  0  0  0  0  0  0  0  0  0  0  0
   -3.4840  -45.9280    8.1020 C   0  0  0  0  0  0  0  0  0  0  0  0
   -4.8050  -45.6290    8.4600 C   0  0  0  0  0  0  0  0  0  0  0  0
   -5.3580  -46.0750    9.7720 C   0  0  0  0  0  0  0  0  0  0  0  0
   -5.5910  -44.9020    7.5530 C   0  0  0  0  0  0  0  0  0  0  0  0
   -7.2380  -44.5680    7.9520 Cl  0  0  0  0  0  0  0  0  0  0  0  0
   -5.0990  -44.4570    6.3200 C   0  0  0  0  0  0  0  0  0  0  0  0
   -3.7900  -44.7500    5.9650 C   0  0  0  0  0  0  0  0  0  0  0  0
   -0.9050  -52.6350    6.9950 H   0  0  0  0  0  0  0  0  0  0  0  0
   -3.6920  -52.5350    6.3750 Cl  0  0  0  0  0  0  0  0  0  0  0  0
   -3.8800  -49.8870    5.4500 H   0  0  0  0  0  0  0  0  0  0  0  0
   -2.1770  -48.0940    5.1580 H   0  0  0  0  0  0  0  0  0  0  0  0
   -0.1400  -46.9450    4.7630 H   0  0  0  0  0  0  0  0  0  0  0  0
    1.6710  -46.9210    4.9130 H   0  0  0  0  0  0  0  0  0  0  0  0
    0.7080  -45.1120    6.2530 H   0  0  0  0  0  0  0  0  0  0  0  0
    1.4120  -46.3740    7.3710 H   0  0  0  0  0  0  0  0  0  0  0  0
   -0.7480  -45.5860    8.2720 H   0  0  0  0  0  0  0  0  0  0  0  0
   -1.0370  -47.2910    7.5910 H   0  0  0  0  0  0  0  0  0  0  0  0
   -2.8780  -46.5180    8.7850 H   0  0  0  0  0  0  0  0  0  0  0  0
   -6.1090  -46.8860    9.6100 H   0  0  0  0  0  0  0  0  0  0  0  0
   -5.8710  -45.2320   10.2940 H   0  0  0  0  0  0  0  0  0  0  0  0
   -4.5570  -46.4740   10.4350 H   0  0  0  0  0  0  0  0  0  0  0  0
   -3.3900  -44.4260    5.0090 H   0  0  0  0  0  0  0  0  0  0  0  0
   -5.7430  -43.8930    5.6400 H   0  0  0  0  0  0  0  0  0  0  0  0
    1.1680  -50.6320    6.6940 N   0  0  0  0  0  0  0  0  0  0  0  0
    1.6710  -51.4320    7.0610 H   0  0  0  0  0  0  0  0  0  0  0  0
  1  2  2  0  0  0  0
  2  3  1  0  0  0  0
  2  4  1  0  0  0  0
  4 11  2  0  0  0  0
  4 40  1  0  0  0  0
  5  6  2  0  0  0  0
  5 10  1  0  0  0  0
  5 40  1  0  0  0  0
  6  7  1  0  0  0  0
  6 24  1  0  0  0  0
  7  8  2  0  0  0  0
  7 25  1  0  0  0  0
  8  9  1  0  0  0  0
  8 26  1  0  0  0  0
  9 10  2  0  0  0  0
  9 27  1  0  0  0  0
 10 11  1  0  0  0  0
 11 12  1  0  0  0  0
 12 28  1  0  0  0  0
 12 29  1  0  0  0  0
 12 13  1  0  0  0  0
 13 14  1  0  0  0  0
 13 30  1  0  0  0  0
 13 31  1  0  0  0  0
 14 15  1  0  0  0  0
 14 32  1  0  0  0  0
 14 33  1  0  0  0  0
 15 16  1  0  0  0  0
 16 17  2  0  0  0  0
 16 23  1  0  0  0  0
 17 18  1  0  0  0  0
 17 34  1  0  0  0  0
 18 19  1  0  0  0  0
 18 20  2  0  0  0  0
 19 35  1  0  0  0  0
 19 36  1  0  0  0  0
 19 37  1  0  0  0  0
 20 21  1  0  0  0  0
 20 22  1  0  0  0  0
 22 23  2  0  0  0  0
 22 39  1  0  0  0  0
 23 38  1  0  0  0  0
 40 41  1  0  0  0  0
M  CHG  1   3  -1
M  END
$$$$
