p38a_2s
 OpenBabel02232411163D
Structure written by MMmdl.
 54 57  0  0  1  0  0  0  0  0999 V2000
   36.2740   35.7490   16.1630 C   0  0  0  0  0  0  0  0  0  0  0  0
   34.0370   34.9670   21.6140 C   0  0  0  0  0  0  0  0  0  0  0  0
   35.4960   35.3410   17.2440 C   0  0  0  0  0  0  0  0  0  0  0  0
   33.5490   39.1720   23.9490 C   0  0  0  0  0  0  0  0  0  0  0  0
   34.3310   37.8250   21.6720 C   0  0  0  0  0  0  0  0  0  0  0  0
   34.8240   37.0910   20.5400 C   0  0  0  0  0  0  0  0  0  0  0  0
   37.5540   36.2320   16.4610 C   0  0  0  0  0  0  0  0  0  0  0  0
   38.0750   36.2850   17.7580 C   0  0  0  0  0  0  0  0  0  0  0  0
   37.2680   35.8850   18.8280 C   0  0  0  0  0  0  0  0  0  0  0  0
   33.7120   37.1470   22.7610 C   0  0  0  0  0  0  0  0  0  0  0  0
   34.4690   39.2380   21.7860 C   0  0  0  0  0  0  0  0  0  0  0  0
   34.7090   35.7420   20.5380 C   0  0  0  0  0  0  0  0  0  0  0  0
   35.9780   35.4110   18.5680 C   0  0  0  0  0  0  0  0  0  0  0  0
   34.2810   34.8490   17.0490 F   0  0  0  0  0  0  0  0  0  0  0  0
   35.1420   34.8600   19.5480 O   0  0  0  0  0  0  0  0  0  0  0  0
   34.0970   39.9170   22.8770 N   0  0  0  0  0  0  0  0  0  0  0  0
   33.9050   33.7590   21.6250 O   0  0  0  0  0  0  0  0  0  0  0  0
   33.5080   35.7510   22.6990 N   0  0  0  0  0  0  0  0  0  0  0  0
   33.3340   37.8100   23.9010 N   0  0  0  0  0  0  0  0  0  0  0  0
   33.2100   39.8990   25.0620 N   0  0  0  0  0  0  0  0  0  0  0  0
   35.8980   35.7260   15.1360 H   0  0  0  0  0  0  0  0  0  0  0  0
   35.2950   37.6530   19.7290 H   0  0  0  0  0  0  0  0  0  0  0  0
   39.0860   36.6630   17.9330 H   0  0  0  0  0  0  0  0  0  0  0  0
   37.6400   35.9660   19.8520 H   0  0  0  0  0  0  0  0  0  0  0  0
   34.9040   39.8180   20.9530 H   0  0  0  0  0  0  0  0  0  0  0  0
   33.4510   40.9120   25.0800 H   0  0  0  0  0  0  0  0  0  0  0  0
   38.3010   36.6900   15.4590 F   0  0  0  0  0  0  0  0  0  0  0  0
   33.2790   38.0150   28.4250 C   0  0  0  0  0  0  0  0  0  0  0  0
   33.8050   38.4830   27.0610 C   0  0  0  0  0  0  0  0  0  0  0  0
   32.7470   39.3760   26.3830 C   0  0  0  0  0  0  0  0  0  0  0  0
   31.4010   38.6350   26.2900 C   0  0  0  0  0  0  0  0  0  0  0  0
   30.9810   38.1760   27.6910 C   0  0  0  0  0  0  0  0  0  0  0  0
   31.9980   37.3560   28.3120 O   0  0  0  0  0  0  0  0  0  0  0  0
   33.1840   38.8730   29.1310 H   0  0  0  0  0  0  0  0  0  0  0  0
   33.9240   37.2110   28.8500 H   0  0  0  0  0  0  0  0  0  0  0  0
   34.0290   37.5950   26.4230 H   0  0  0  0  0  0  0  0  0  0  0  0
   34.7520   39.0570   27.2080 H   0  0  0  0  0  0  0  0  0  0  0  0
   32.6060   40.3110   27.0080 H   0  0  0  0  0  0  0  0  0  0  0  0
   30.6240   39.3050   25.8570 H   0  0  0  0  0  0  0  0  0  0  0  0
   31.4950   37.7400   25.6240 H   0  0  0  0  0  0  0  0  0  0  0  0
   30.7640   39.0410   28.3570 H   0  0  0  0  0  0  0  0  0  0  0  0
   30.1170   37.4750   27.6420 H   0  0  0  0  0  0  0  0  0  0  0  0
   32.7920   35.0510   23.8100 C   0  0  0  0  0  0  0  0  0  0  0  0
   33.4530   34.2230   24.1830 H   0  0  0  0  0  0  0  0  0  0  0  0
   32.6200   35.7710   24.6700 H   0  0  0  0  0  0  0  0  0  0  0  0
   31.4050   34.5170   23.3850 C   0  0  2  0  0  0  0  0  0  0  0  0
   30.4750   35.3860   24.0570 O   0  0  0  0  0  0  0  0  0  0  0  0
   29.5410   35.2010   23.7550 H   0  0  0  0  0  0  0  0  0  0  0  0
   31.1800   33.0620   23.8650 C   0  0  0  0  0  0  0  0  0  0  0  0
   30.1070   32.7740   23.7650 H   0  0  0  0  0  0  0  0  0  0  0  0
   31.5260   32.9160   24.9160 H   0  0  0  0  0  0  0  0  0  0  0  0
   31.2240   34.5930   22.2910 H   0  0  0  0  0  0  0  0  0  0  0  0
   31.8750   32.1420   23.0150 O   0  0  0  0  0  0  0  0  0  0  0  0
   32.7590   32.5340   22.7830 H   0  0  0  0  0  0  0  0  0  0  0  0
  1  3  2  0  0  0  0
  1  7  1  0  0  0  0
  1 21  1  0  0  0  0
  2 12  1  0  0  0  0
  2 17  2  0  0  0  0
  2 18  1  0  0  0  0
  3 13  1  0  0  0  0
  3 14  1  0  0  0  0
  4 16  2  0  0  0  0
  4 19  1  0  0  0  0
  4 20  1  0  0  0  0
  5  6  1  0  0  0  0
  5 10  1  0  0  0  0
  5 11  2  0  0  0  0
  6 12  2  0  0  0  0
  6 22  1  0  0  0  0
  7  8  2  0  0  0  0
  7 27  1  0  0  0  0
  8  9  1  0  0  0  0
  8 23  1  0  0  0  0
  9 13  2  0  0  0  0
  9 24  1  0  0  0  0
 10 18  1  0  0  0  0
 10 19  2  0  0  0  0
 11 16  1  0  0  0  0
 11 25  1  0  0  0  0
 12 15  1  0  0  0  0
 13 15  1  0  0  0  0
 18 43  1  0  0  0  0
 20 26  1  0  0  0  0
 20 30  1  0  0  0  0
 28 29  1  0  0  0  0
 28 33  1  0  0  0  0
 28 34  1  0  0  0  0
 28 35  1  0  0  0  0
 29 30  1  0  0  0  0
 29 36  1  0  0  0  0
 29 37  1  0  0  0  0
 30 31  1  0  0  0  0
 30 38  1  0  0  0  0
 31 32  1  0  0  0  0
 31 39  1  0  0  0  0
 31 40  1  0  0  0  0
 32 33  1  0  0  0  0
 32 41  1  0  0  0  0
 32 42  1  0  0  0  0
 43 44  1  0  0  0  0
 43 45  1  0  0  0  0
 43 46  1  0  0  0  0
 46 47  1  0  0  0  0
 46 49  1  0  0  0  0
 46 52  1  1  0  0  0
 47 48  1  0  0  0  0
 49 50  1  0  0  0  0
 49 51  1  0  0  0  0
 49 53  1  0  0  0  0
 53 54  1  0  0  0  0
M  END
$$$$
