p38a_3fmh
 OpenBabel02232411163D
Structure written by MMmdl.
 46 49  0  0  1  0  0  0  0  0999 V2000
   38.2960   37.0890   14.9410 F   0  0  0  0  0  0  0  0  0  0  0  0
   37.6580   36.5520   15.9790 C   0  0  0  0  0  0  0  0  0  0  0  0
   38.2900   36.5530   17.2260 C   0  0  0  0  0  0  0  0  0  0  0  0
   37.5820   36.0970   18.3430 C   0  0  0  0  0  0  0  0  0  0  0  0
   36.3680   36.0470   15.7670 C   0  0  0  0  0  0  0  0  0  0  0  0
   35.7000   35.5630   16.8870 C   0  0  0  0  0  0  0  0  0  0  0  0
   34.4880   35.0370   16.7730 F   0  0  0  0  0  0  0  0  0  0  0  0
   36.2860   35.6030   18.1690 C   0  0  0  0  0  0  0  0  0  0  0  0
   35.5410   35.0010   19.1910 O   0  0  0  0  0  0  0  0  0  0  0  0
   35.1420   35.8450   20.2250 C   0  0  0  0  0  0  0  0  0  0  0  0
   34.5620   35.0060   21.3110 C   0  0  0  0  0  0  0  0  0  0  0  0
   34.3270   33.8210   21.2320 O   0  0  0  0  0  0  0  0  0  0  0  0
   34.2760   35.7220   22.5270 N   0  0  0  0  0  0  0  0  0  0  0  0
   33.8430   34.9630   23.7340 C   0  0  0  0  0  0  0  0  0  0  0  0
   34.3760   37.1200   22.6030 C   0  0  0  0  0  0  0  0  0  0  0  0
   34.0650   37.7320   23.7950 N   0  0  0  0  0  0  0  0  0  0  0  0
   35.2100   37.1950   20.2670 C   0  0  0  0  0  0  0  0  0  0  0  0
   34.7820   37.8720   21.4610 C   0  0  0  0  0  0  0  0  0  0  0  0
   34.7670   39.2870   21.5850 C   0  0  0  0  0  0  0  0  0  0  0  0
   34.4600   39.9150   22.7300 N   0  0  0  0  0  0  0  0  0  0  0  0
   34.1380   39.1060   23.8380 C   0  0  0  0  0  0  0  0  0  0  0  0
   33.8050   39.7770   25.0000 N   0  0  0  0  0  0  0  0  0  0  0  0
   33.7960   39.1730   26.3650 C   0  0  2  0  0  0  0  0  0  0  0  0
   35.0930   38.4420   26.7050 C   0  0  0  0  0  0  0  0  0  0  0  0
   32.5450   38.2520   26.4920 C   0  0  0  0  0  0  0  0  0  0  0  0
   32.2280   37.9960   27.9170 N   0  0  0  0  0  0  0  0  0  0  0  0
   32.3420   36.7720   28.5000 N   0  0  0  0  0  0  0  0  0  0  0  0
   31.9950   36.9860   29.8020 C   0  0  0  0  0  0  0  0  0  0  0  0
   31.6790   38.3590   29.9760 N   0  0  0  0  0  0  0  0  0  0  0  0
   31.8290   38.9430   28.8280 N   0  0  0  0  0  0  0  0  0  0  0  0
   39.3090   36.9330   17.3380 H   0  0  0  0  0  0  0  0  0  0  0  0
   38.0390   36.1530   19.3340 H   0  0  0  0  0  0  0  0  0  0  0  0
   35.9030   36.0590   14.7790 H   0  0  0  0  0  0  0  0  0  0  0  0
   34.5040   35.2240   24.6060 H   0  0  0  0  0  0  0  0  0  0  0  0
   32.7860   35.2340   23.9990 H   0  0  0  0  0  0  0  0  0  0  0  0
   33.9080   33.8600   23.5440 H   0  0  0  0  0  0  0  0  0  0  0  0
   35.5940   37.8010   19.4440 H   0  0  0  0  0  0  0  0  0  0  0  0
   35.0160   39.9170   20.7150 H   0  0  0  0  0  0  0  0  0  0  0  0
   33.9040   40.8130   25.0110 H   0  0  0  0  0  0  0  0  0  0  0  0
   33.6720   40.0540   27.0650 H   0  0  0  0  0  0  0  0  0  0  0  0
   35.0900   38.1400   27.7780 H   0  0  0  0  0  0  0  0  0  0  0  0
   35.2170   37.5210   26.0880 H   0  0  0  0  0  0  0  0  0  0  0  0
   35.9660   39.1110   26.5330 H   0  0  0  0  0  0  0  0  0  0  0  0
   31.6590   38.7550   26.0100 H   0  0  0  0  0  0  0  0  0  0  0  0
   32.7330   37.2650   25.9750 H   0  0  0  0  0  0  0  0  0  0  0  0
   31.9620   36.2370   30.5930 H   0  0  0  0  0  0  0  0  0  0  0  0
  1  2  1  0  0  0  0
  2  3  2  0  0  0  0
  2  5  1  0  0  0  0
  3  4  1  0  0  0  0
  3 31  1  0  0  0  0
  4  8  2  0  0  0  0
  4 32  1  0  0  0  0
  5  6  2  0  0  0  0
  5 33  1  0  0  0  0
  6  7  1  0  0  0  0
  6  8  1  0  0  0  0
  8  9  1  0  0  0  0
  9 10  1  0  0  0  0
 10 11  1  0  0  0  0
 10 17  2  0  0  0  0
 11 12  2  0  0  0  0
 11 13  1  0  0  0  0
 13 14  1  0  0  0  0
 13 15  1  0  0  0  0
 14 34  1  0  0  0  0
 14 35  1  0  0  0  0
 14 36  1  0  0  0  0
 15 16  2  0  0  0  0
 15 18  1  0  0  0  0
 16 21  1  0  0  0  0
 17 18  1  0  0  0  0
 17 37  1  0  0  0  0
 18 19  2  0  0  0  0
 19 20  1  0  0  0  0
 19 38  1  0  0  0  0
 20 21  2  0  0  0  0
 21 22  1  0  0  0  0
 22 23  1  0  0  0  0
 22 39  1  0  0  0  0
 23 24  1  0  0  0  0
 23 25  1  0  0  0  0
 23 40  1  6  0  0  0
 24 41  1  0  0  0  0
 24 42  1  0  0  0  0
 24 43  1  0  0  0  0
 25 26  1  0  0  0  0
 25 44  1  0  0  0  0
 25 45  1  0  0  0  0
 26 27  1  0  0  0  0
 26 30  1  0  0  0  0
 27 28  2  0  0  0  0
 28 29  1  0  0  0  0
 28 46  1  0  0  0  0
 29 30  2  0  0  0  0
M  END
$$$$
