p38a_2o
 OpenBabel02232411163D
Structure written by MMmdl.
 55 58  0  0  0  0  0  0  0  0999 V2000
   38.2820   36.5360   17.1820 C   0  0  0  0  0  0  0  0  0  0  0  0
   34.2930   35.1270   21.1610 C   0  0  0  0  0  0  0  0  0  0  0  0
   37.5130   36.0810   18.2510 C   0  0  0  0  0  0  0  0  0  0  0  0
   33.7610   39.2240   23.6740 C   0  0  0  0  0  0  0  0  0  0  0  0
   34.5390   37.9950   21.3340 C   0  0  0  0  0  0  0  0  0  0  0  0
   35.0520   37.3120   20.1780 C   0  0  0  0  0  0  0  0  0  0  0  0
   37.6190   36.6820   15.9560 C   0  0  0  0  0  0  0  0  0  0  0  0
   36.2690   36.3740   15.7690 C   0  0  0  0  0  0  0  0  0  0  0  0
   35.5220   35.9050   16.8550 C   0  0  0  0  0  0  0  0  0  0  0  0
   33.9420   37.2550   22.3950 C   0  0  0  0  0  0  0  0  0  0  0  0
   34.6100   39.4040   21.4970 C   0  0  0  0  0  0  0  0  0  0  0  0
   34.9690   35.9630   20.1300 C   0  0  0  0  0  0  0  0  0  0  0  0
   36.1530   35.7460   18.0920 C   0  0  0  0  0  0  0  0  0  0  0  0
   38.0580   35.9580   19.4540 F   0  0  0  0  0  0  0  0  0  0  0  0
   35.4610   35.1180   19.1390 O   0  0  0  0  0  0  0  0  0  0  0  0
   34.2410   40.0310   22.6250 N   0  0  0  0  0  0  0  0  0  0  0  0
   34.1850   33.9220   21.1260 O   0  0  0  0  0  0  0  0  0  0  0  0
   33.7220   35.8700   22.2580 N   0  0  0  0  0  0  0  0  0  0  0  0
   33.5740   37.8610   23.5700 N   0  0  0  0  0  0  0  0  0  0  0  0
   33.4000   39.8600   24.8450 N   0  0  0  0  0  0  0  0  0  0  0  0
   39.3350   36.8040   17.3040 H   0  0  0  0  0  0  0  0  0  0  0  0
   35.5060   37.9120   19.3870 H   0  0  0  0  0  0  0  0  0  0  0  0
   35.7860   36.5090   14.7980 H   0  0  0  0  0  0  0  0  0  0  0  0
   34.4570   35.6830   16.7300 H   0  0  0  0  0  0  0  0  0  0  0  0
   34.9840   40.0300   20.6710 H   0  0  0  0  0  0  0  0  0  0  0  0
   33.6130   40.8720   24.9560 H   0  0  0  0  0  0  0  0  0  0  0  0
   38.3020   37.1790   14.9280 F   0  0  0  0  0  0  0  0  0  0  0  0
   32.0390   39.1130   28.3340 C   0  0  0  0  0  0  0  0  0  0  0  0
   32.1030   39.7390   26.9350 C   0  0  0  0  0  0  0  0  0  0  0  0
   33.2660   39.1160   26.1340 C   0  0  0  0  0  0  0  0  0  0  0  0
   34.5860   39.2190   26.9340 C   0  0  0  0  0  0  0  0  0  0  0  0
   34.4000   38.6340   28.3390 C   0  0  0  0  0  0  0  0  0  0  0  0
   33.2950   39.2540   29.0360 O   0  0  0  0  0  0  0  0  0  0  0  0
   31.7740   38.0320   28.2720 H   0  0  0  0  0  0  0  0  0  0  0  0
   31.3340   39.6650   28.9950 H   0  0  0  0  0  0  0  0  0  0  0  0
   32.2610   40.8390   27.0240 H   0  0  0  0  0  0  0  0  0  0  0  0
   31.1440   39.5550   26.3950 H   0  0  0  0  0  0  0  0  0  0  0  0
   33.0310   38.0380   25.9210 H   0  0  0  0  0  0  0  0  0  0  0  0
   35.3920   38.6580   26.4050 H   0  0  0  0  0  0  0  0  0  0  0  0
   34.8930   40.2910   27.0090 H   0  0  0  0  0  0  0  0  0  0  0  0
   34.2220   37.5350   28.2910 H   0  0  0  0  0  0  0  0  0  0  0  0
   35.2660   38.8830   28.9960 H   0  0  0  0  0  0  0  0  0  0  0  0
   32.8040   35.1700   23.2240 C   0  0  0  0  0  0  0  0  0  0  0  0
   31.9750   35.8950   23.4740 H   0  0  0  0  0  0  0  0  0  0  0  0
   32.3700   34.2820   22.6800 H   0  0  0  0  0  0  0  0  0  0  0  0
   33.5130   34.7230   24.5020 C   0  0  0  0  0  0  0  0  0  0  0  0
   34.3610   34.0330   24.2540 H   0  0  0  0  0  0  0  0  0  0  0  0
   33.9850   35.6250   24.9900 H   0  0  0  0  0  0  0  0  0  0  0  0
   32.4250   33.9510   25.6700 S   0  0  0  0  0  0  0  0  0  0  0  0
   33.2220   33.1490   26.6270 O   0  0  0  0  0  0  0  0  0  0  0  0
   31.4550   33.0900   24.9550 O   0  0  0  0  0  0  0  0  0  0  0  0
   31.6320   35.2590   26.4850 C   0  0  0  0  0  0  0  0  0  0  0  0
   31.2550   36.0520   25.7880 H   0  0  0  0  0  0  0  0  0  0  0  0
   30.7330   34.9270   27.0720 H   0  0  0  0  0  0  0  0  0  0  0  0
   32.3060   35.7690   27.2220 H   0  0  0  0  0  0  0  0  0  0  0  0
  1  3  2  0  0  0  0
  1  7  1  0  0  0  0
  1 21  1  0  0  0  0
  2 12  1  0  0  0  0
  2 17  2  0  0  0  0
  2 18  1  0  0  0  0
  3 13  1  0  0  0  0
  3 14  1  0  0  0  0
  4 16  2  0  0  0  0
  4 19  1  0  0  0  0
  4 20  1  0  0  0  0
  5  6  1  0  0  0  0
  5 10  1  0  0  0  0
  5 11  2  0  0  0  0
  6 12  2  0  0  0  0
  6 22  1  0  0  0  0
  7  8  2  0  0  0  0
  7 27  1  0  0  0  0
  8  9  1  0  0  0  0
  8 23  1  0  0  0  0
  9 13  2  0  0  0  0
  9 24  1  0  0  0  0
 10 18  1  0  0  0  0
 10 19  2  0  0  0  0
 11 16  1  0  0  0  0
 11 25  1  0  0  0  0
 12 15  1  0  0  0  0
 13 15  1  0  0  0  0
 18 43  1  0  0  0  0
 20 26  1  0  0  0  0
 20 30  1  0  0  0  0
 28 29  1  0  0  0  0
 28 33  1  0  0  0  0
 28 34  1  0  0  0  0
 28 35  1  0  0  0  0
 29 30  1  0  0  0  0
 29 36  1  0  0  0  0
 29 37  1  0  0  0  0
 30 31  1  0  0  0  0
 30 38  1  0  0  0  0
 31 32  1  0  0  0  0
 31 39  1  0  0  0  0
 31 40  1  0  0  0  0
 32 33  1  0  0  0  0
 32 41  1  0  0  0  0
 32 42  1  0  0  0  0
 43 44  1  0  0  0  0
 43 45  1  0  0  0  0
 43 46  1  0  0  0  0
 46 47  1  0  0  0  0
 46 48  1  0  0  0  0
 46 49  1  0  0  0  0
 49 50  2  0  0  0  0
 49 51  2  0  0  0  0
 49 52  1  0  0  0  0
 52 53  1  0  0  0  0
 52 54  1  0  0  0  0
 52 55  1  0  0  0  0
M  END
$$$$
