p38a_2s
 OpenBabel02232411163D
Structure written by MMmdl.
 54 57  0  0  1  0  0  0  0  0999 V2000
   37.8420   36.2060   17.5650 C   0  0  0  0  0  0  0  0  0  0  0  0
   33.7860   35.0350   21.4830 C   0  0  0  0  0  0  0  0  0  0  0  0
   36.9910   35.8260   18.6000 C   0  0  0  0  0  0  0  0  0  0  0  0
   33.3610   39.2000   23.9090 C   0  0  0  0  0  0  0  0  0  0  0  0
   34.0650   37.8940   21.5840 C   0  0  0  0  0  0  0  0  0  0  0  0
   34.5110   37.1870   20.4160 C   0  0  0  0  0  0  0  0  0  0  0  0
   37.2670   36.3110   16.2910 C   0  0  0  0  0  0  0  0  0  0  0  0
   35.9200   36.0460   16.0330 C   0  0  0  0  0  0  0  0  0  0  0  0
   35.0870   35.6650   17.0920 C   0  0  0  0  0  0  0  0  0  0  0  0
   33.4890   37.1920   22.6860 C   0  0  0  0  0  0  0  0  0  0  0  0
   34.2230   39.3000   21.7230 C   0  0  0  0  0  0  0  0  0  0  0  0
   34.4100   35.8390   20.3970 C   0  0  0  0  0  0  0  0  0  0  0  0
   35.6270   35.5400   18.3760 C   0  0  0  0  0  0  0  0  0  0  0  0
   37.4680   35.7200   19.8320 F   0  0  0  0  0  0  0  0  0  0  0  0
   34.8360   34.9750   19.3870 O   0  0  0  0  0  0  0  0  0  0  0  0
   33.8950   39.9590   22.8410 N   0  0  0  0  0  0  0  0  0  0  0  0
   33.6690   33.8290   21.4820 O   0  0  0  0  0  0  0  0  0  0  0  0
   33.2970   35.7960   22.6080 N   0  0  0  0  0  0  0  0  0  0  0  0
   33.1590   37.8370   23.8520 N   0  0  0  0  0  0  0  0  0  0  0  0
   33.0090   39.9240   25.0240 N   0  0  0  0  0  0  0  0  0  0  0  0
   38.8960   36.4500   17.7370 H   0  0  0  0  0  0  0  0  0  0  0  0
   34.9390   37.7660   19.5920 H   0  0  0  0  0  0  0  0  0  0  0  0
   35.5070   36.1470   15.0260 H   0  0  0  0  0  0  0  0  0  0  0  0
   34.0230   35.4800   16.9070 H   0  0  0  0  0  0  0  0  0  0  0  0
   34.6420   39.8950   20.8920 H   0  0  0  0  0  0  0  0  0  0  0  0
   33.3050   40.9230   25.0620 H   0  0  0  0  0  0  0  0  0  0  0  0
   38.0430   36.7130   15.2870 F   0  0  0  0  0  0  0  0  0  0  0  0
   33.1950   38.1530   28.4400 C   0  0  0  0  0  0  0  0  0  0  0  0
   33.6940   38.6100   27.0620 C   0  0  0  0  0  0  0  0  0  0  0  0
   32.5740   39.3950   26.3500 C   0  0  0  0  0  0  0  0  0  0  0  0
   31.2960   38.5430   26.2690 C   0  0  0  0  0  0  0  0  0  0  0  0
   30.8980   38.0910   27.6790 C   0  0  0  0  0  0  0  0  0  0  0  0
   31.9750   37.3880   28.3430 O   0  0  0  0  0  0  0  0  0  0  0  0
   33.0220   39.0280   29.1100 H   0  0  0  0  0  0  0  0  0  0  0  0
   33.8980   37.4220   28.9010 H   0  0  0  0  0  0  0  0  0  0  0  0
   33.9870   37.7190   26.4550 H   0  0  0  0  0  0  0  0  0  0  0  0
   34.5950   39.2580   27.1920 H   0  0  0  0  0  0  0  0  0  0  0  0
   32.3500   40.3300   26.9490 H   0  0  0  0  0  0  0  0  0  0  0  0
   30.4720   39.1340   25.8100 H   0  0  0  0  0  0  0  0  0  0  0  0
   31.4650   37.6400   25.6300 H   0  0  0  0  0  0  0  0  0  0  0  0
   30.5910   38.9500   28.3160 H   0  0  0  0  0  0  0  0  0  0  0  0
   30.1050   37.3100   27.6390 H   0  0  0  0  0  0  0  0  0  0  0  0
   32.6430   35.0570   23.7350 C   0  0  0  0  0  0  0  0  0  0  0  0
   33.2360   34.1200   23.9310 H   0  0  0  0  0  0  0  0  0  0  0  0
   32.6650   35.6940   24.6690 H   0  0  0  0  0  0  0  0  0  0  0  0
   31.1730   34.6940   23.4410 C   0  0  2  0  0  0  0  0  0  0  0  0
   30.4030   35.8460   23.8500 O   0  0  0  0  0  0  0  0  0  0  0  0
   29.4510   35.7010   23.6020 H   0  0  0  0  0  0  0  0  0  0  0  0
   30.6930   33.4840   24.2780 C   0  0  0  0  0  0  0  0  0  0  0  0
   30.5920   33.7640   25.3530 H   0  0  0  0  0  0  0  0  0  0  0  0
   31.3460   32.5900   24.1490 H   0  0  0  0  0  0  0  0  0  0  0  0
   30.9710   34.5210   22.3620 H   0  0  0  0  0  0  0  0  0  0  0  0
   29.4120   33.0320   23.8050 O   0  0  0  0  0  0  0  0  0  0  0  0
   28.8240   33.8410   23.6650 H   0  0  0  0  0  0  0  0  0  0  0  0
  1  3  2  0  0  0  0
  1  7  1  0  0  0  0
  1 21  1  0  0  0  0
  2 12  1  0  0  0  0
  2 17  2  0  0  0  0
  2 18  1  0  0  0  0
  3 13  1  0  0  0  0
  3 14  1  0  0  0  0
  4 16  2  0  0  0  0
  4 19  1  0  0  0  0
  4 20  1  0  0  0  0
  5  6  1  0  0  0  0
  5 10  1  0  0  0  0
  5 11  2  0  0  0  0
  6 12  2  0  0  0  0
  6 22  1  0  0  0  0
  7  8  2  0  0  0  0
  7 27  1  0  0  0  0
  8  9  1  0  0  0  0
  8 23  1  0  0  0  0
  9 13  2  0  0  0  0
  9 24  1  0  0  0  0
 10 18  1  0  0  0  0
 10 19  2  0  0  0  0
 11 16  1  0  0  0  0
 11 25  1  0  0  0  0
 12 15  1  0  0  0  0
 13 15  1  0  0  0  0
 18 43  1  0  0  0  0
 20 26  1  0  0  0  0
 20 30  1  0  0  0  0
 28 29  1  0  0  0  0
 28 33  1  0  0  0  0
 28 34  1  0  0  0  0
 28 35  1  0  0  0  0
 29 30  1  0  0  0  0
 29 36  1  0  0  0  0
 29 37  1  0  0  0  0
 30 31  1  0  0  0  0
 30 38  1  0  0  0  0
 31 32  1  0  0  0  0
 31 39  1  0  0  0  0
 31 40  1  0  0  0  0
 32 33  1  0  0  0  0
 32 41  1  0  0  0  0
 32 42  1  0  0  0  0
 43 44  1  0  0  0  0
 43 45  1  0  0  0  0
 43 46  1  0  0  0  0
 46 47  1  0  0  0  0
 46 49  1  0  0  0  0
 46 52  1  1  0  0  0
 47 48  1  0  0  0  0
 49 50  1  0  0  0  0
 49 51  1  0  0  0  0
 49 53  1  0  0  0  0
 53 54  1  0  0  0  0
M  END
$$$$
