CAT-17b
 OpenBabel02232411143D
Structure written by MMmdl.
 47 50  0  0  1  0  0  0  0  0999 V2000
   12.6980    4.4130   -5.1460 C   0  0  0  0  0  0  0  0  0  0  0  0
   13.1910    4.9740   -3.9010 O   0  0  0  0  0  0  0  0  0  0  0  0
   13.9690    4.1880   -3.0900 C   0  0  0  0  0  0  0  0  0  0  0  0
   14.3440    4.8520   -1.8980 C   0  0  0  0  0  0  0  0  0  0  0  0
   15.1150    4.1680   -0.9690 C   0  0  0  0  0  0  0  0  0  0  0  0
   15.5080    2.8410   -1.2080 C   0  0  0  0  0  0  0  0  0  0  0  0
   15.1180    2.1950   -2.3840 C   0  0  0  0  0  0  0  0  0  0  0  0
   15.4850    0.7710   -2.5900 C   0  0  0  0  0  0  0  0  0  0  0  0
   16.2990    0.3730   -3.6630 C   0  0  0  0  0  0  0  0  0  0  0  0
   16.6810   -0.9650   -3.7900 C   0  0  0  0  0  0  0  0  0  0  0  0
   16.2290   -1.9250   -2.8790 C   0  0  0  0  0  0  0  0  0  0  0  0
   15.3680   -1.5430   -1.8440 C   0  0  0  0  0  0  0  0  0  0  0  0
   14.7850   -2.5650   -0.8930 C   0  0  1  0  0  0  0  0  0  0  0  0
   15.0030   -4.0220   -1.2720 C   0  0  0  0  0  0  0  0  0  0  0  0
   16.2230   -4.7840   -0.7860 C   0  0  0  0  0  0  0  0  0  0  0  0
   14.8580   -5.1340   -0.2390 C   0  0  0  0  0  0  0  0  0  0  0  0
   15.2370   -2.2500    0.5150 N   0  3  0  0  0  0  0  0  0  0  0  0
   14.1480   -2.3350    1.3940 C   0  0  0  0  0  0  0  0  0  0  0  0
   14.2980   -2.4650    2.7440 N   0  0  0  0  0  0  0  0  0  0  0  0
   12.9570   -2.3160    0.6760 N   0  0  0  0  0  0  0  0  0  0  0  0
   11.6120   -2.3930    1.2840 C   0  0  0  0  0  0  0  0  0  0  0  0
   13.2320   -2.3910   -0.7780 C   0  0  0  0  0  0  0  0  0  0  0  0
   12.3650   -2.3230   -1.5870 O   0  0  0  0  0  0  0  0  0  0  0  0
   15.0150   -0.1930   -1.6880 C   0  0  0  0  0  0  0  0  0  0  0  0
   14.3550    2.8690   -3.3520 C   0  0  0  0  0  0  0  0  0  0  0  0
   12.1270    5.2750   -5.5680 H   0  0  0  0  0  0  0  0  0  0  0  0
   13.5480    4.1330   -5.8000 H   0  0  0  0  0  0  0  0  0  0  0  0
   12.0290    3.5500   -4.9380 H   0  0  0  0  0  0  0  0  0  0  0  0
   14.0030    5.8720   -1.7130 H   0  0  0  0  0  0  0  0  0  0  0  0
   15.4100    4.6460   -0.0300 H   0  0  0  0  0  0  0  0  0  0  0  0
   16.0980    2.3080   -0.4610 H   0  0  0  0  0  0  0  0  0  0  0  0
   16.6410    1.1070   -4.3990 H   0  0  0  0  0  0  0  0  0  0  0  0
   17.3440   -1.2680   -4.6070 H   0  0  0  0  0  0  0  0  0  0  0  0
   16.5510   -2.9640   -2.9770 H   0  0  0  0  0  0  0  0  0  0  0  0
   14.6440   -4.2370   -2.2960 H   0  0  0  0  0  0  0  0  0  0  0  0
   16.7340   -5.4490   -1.4810 H   0  0  0  0  0  0  0  0  0  0  0  0
   16.9440   -4.2820   -0.1380 H   0  0  0  0  0  0  0  0  0  0  0  0
   14.6280   -4.8830    0.8040 H   0  0  0  0  0  0  0  0  0  0  0  0
   14.3680   -6.0670   -0.5500 H   0  0  0  0  0  0  0  0  0  0  0  0
   16.1700   -2.6010    0.8680 H   0  0  0  0  0  0  0  0  0  0  0  0
   13.5850   -2.0810    3.4140 H   0  0  0  0  0  0  0  0  0  0  0  0
   11.0900   -1.4080    1.1560 H   0  0  0  0  0  0  0  0  0  0  0  0
   11.6780   -2.6390    2.3770 H   0  0  0  0  0  0  0  0  0  0  0  0
   11.0240   -3.2060    0.7770 H   0  0  0  0  0  0  0  0  0  0  0  0
   14.3780    0.1050   -0.8550 H   0  0  0  0  0  0  0  0  0  0  0  0
   14.0750    2.3520   -4.2700 H   0  0  0  0  0  0  0  0  0  0  0  0
   15.2790   -2.3990    3.1420 H   0  0  0  0  0  0  0  0  0  0  0  0
  1  2  1  0  0  0  0
  1 26  1  0  0  0  0
  1 27  1  0  0  0  0
  1 28  1  0  0  0  0
  2  3  1  0  0  0  0
  3  4  2  0  0  0  0
  3 25  1  0  0  0  0
  4  5  1  0  0  0  0
  4 29  1  0  0  0  0
  5  6  2  0  0  0  0
  5 30  1  0  0  0  0
  6  7  1  0  0  0  0
  6 31  1  0  0  0  0
  7  8  1  0  0  0  0
  7 25  2  0  0  0  0
  8  9  2  0  0  0  0
  8 24  1  0  0  0  0
  9 10  1  0  0  0  0
  9 32  1  0  0  0  0
 10 11  2  0  0  0  0
 10 33  1  0  0  0  0
 11 12  1  0  0  0  0
 11 34  1  0  0  0  0
 12 24  2  0  0  0  0
 13 12  1  6  0  0  0
 13 14  1  0  0  0  0
 13 17  1  0  0  0  0
 13 22  1  0  0  0  0
 14 15  1  0  0  0  0
 14 16  1  0  0  0  0
 14 35  1  0  0  0  0
 15 16  1  0  0  0  0
 15 36  1  0  0  0  0
 15 37  1  0  0  0  0
 16 38  1  0  0  0  0
 16 39  1  0  0  0  0
 17 18  2  0  0  0  0
 17 40  1  0  0  0  0
 18 19  1  0  0  0  0
 18 20  1  0  0  0  0
 19 41  1  0  0  0  0
 19 47  1  0  0  0  0
 20 21  1  0  0  0  0
 20 22  1  0  0  0  0
 21 42  1  0  0  0  0
 21 43  1  0  0  0  0
 21 44  1  0  0  0  0
 22 23  2  0  0  0  0
 24 45  1  0  0  0  0
 25 46  1  0  0  0  0
M  CHG  1  17   1
M  END
$$$$
