CAT-13d
 OpenBabel04222415263D
Structure written by MMmdl.
 43 46  0  0  1  0  0  0  0  0999 V2000
   11.6410   -2.3430    1.2780 C   0  0  0  0  0  0  0  0  0  0  0  0
   12.9800   -2.4240    0.6610 N   0  0  0  0  0  0  0  0  0  0  0  0
   14.1690   -2.3930    1.3850 C   0  0  0  0  0  0  0  0  0  0  0  0
   14.3090   -2.4720    2.7400 N   0  0  0  0  0  0  0  0  0  0  0  0
   15.2600   -2.3410    0.5080 N   0  3  0  0  0  0  0  0  0  0  0  0
   14.8140   -2.6650   -0.8990 C   0  0  1  0  0  0  0  0  0  0  0  0
   15.4000   -1.6340   -1.8410 C   0  0  0  0  0  0  0  0  0  0  0  0
   16.2380   -1.9940   -2.9020 C   0  0  0  0  0  0  0  0  0  0  0  0
   16.7210   -1.0020   -3.7630 C   0  0  0  0  0  0  0  0  0  0  0  0
   16.4090    0.3430   -3.5510 C   0  0  0  0  0  0  0  0  0  0  0  0
   15.6140    0.7180   -2.4540 C   0  0  0  0  0  0  0  0  0  0  0  0
   15.3270    2.1350   -2.1340 C   0  0  0  0  0  0  0  0  0  0  0  0
   14.9360    3.0520   -3.1210 C   0  0  0  0  0  0  0  0  0  0  0  0
   14.5920    4.3620   -2.7670 C   0  0  0  0  0  0  0  0  0  0  0  0
   14.6180    4.7690   -1.4300 C   0  0  0  0  0  0  0  0  0  0  0  0
   15.0260    3.8500   -0.4600 C   0  0  0  0  0  0  0  0  0  0  0  0
   15.0010    4.2960    1.2060 Cl  0  0  0  0  0  0  0  0  0  0  0  0
   15.4070    2.5520   -0.7930 C   0  0  0  0  0  0  0  0  0  0  0  0
   15.0870   -0.2840   -1.6260 C   0  0  0  0  0  0  0  0  0  0  0  0
   15.0460   -4.1210   -1.2700 C   0  0  0  0  0  0  0  0  0  0  0  0
   14.8860   -5.2240   -0.2280 C   0  0  0  0  0  0  0  0  0  0  0  0
   16.2600   -4.8720   -0.7520 C   0  0  0  0  0  0  0  0  0  0  0  0
   13.2600   -2.4990   -0.7890 C   0  0  0  0  0  0  0  0  0  0  0  0
   12.3970   -2.4490   -1.6040 O   0  0  0  0  0  0  0  0  0  0  0  0
   10.9290   -2.9910    0.6990 H   0  0  0  0  0  0  0  0  0  0  0  0
   11.6720   -2.7120    2.3380 H   0  0  0  0  0  0  0  0  0  0  0  0
   11.2880   -1.2780    1.2610 H   0  0  0  0  0  0  0  0  0  0  0  0
   13.5890   -2.0660    3.3870 H   0  0  0  0  0  0  0  0  0  0  0  0
   16.1950   -2.6720    0.8710 H   0  0  0  0  0  0  0  0  0  0  0  0
   16.5180   -3.0370   -3.0590 H   0  0  0  0  0  0  0  0  0  0  0  0
   17.3600   -1.2840   -4.6060 H   0  0  0  0  0  0  0  0  0  0  0  0
   16.7900    1.1010   -4.2410 H   0  0  0  0  0  0  0  0  0  0  0  0
   14.8820    2.7430   -4.1700 H   0  0  0  0  0  0  0  0  0  0  0  0
   14.2760    5.0670   -3.5450 H   0  0  0  0  0  0  0  0  0  0  0  0
   14.3010    5.7770   -1.1510 H   0  0  0  0  0  0  0  0  0  0  0  0
   15.7510    1.8560   -0.0270 H   0  0  0  0  0  0  0  0  0  0  0  0
   14.4310   -0.0150   -0.7990 H   0  0  0  0  0  0  0  0  0  0  0  0
   14.7050   -4.3430   -2.2970 H   0  0  0  0  0  0  0  0  0  0  0  0
   14.4050   -6.1620   -0.5360 H   0  0  0  0  0  0  0  0  0  0  0  0
   14.6330   -4.9590    0.8060 H   0  0  0  0  0  0  0  0  0  0  0  0
   16.9660   -4.3600   -0.0960 H   0  0  0  0  0  0  0  0  0  0  0  0
   16.7900   -5.5420   -1.4270 H   0  0  0  0  0  0  0  0  0  0  0  0
   15.2860   -2.3970    3.1430 H   0  0  0  0  0  0  0  0  0  0  0  0
  1  2  1  0  0  0  0
  1 25  1  0  0  0  0
  1 26  1  0  0  0  0
  1 27  1  0  0  0  0
  2  3  1  0  0  0  0
  2 23  1  0  0  0  0
  3  4  1  0  0  0  0
  3  5  2  0  0  0  0
  4 28  1  0  0  0  0
  4 43  1  0  0  0  0
  5  6  1  0  0  0  0
  5 29  1  0  0  0  0
  6  7  1  6  0  0  0
  6 20  1  0  0  0  0
  6 23  1  0  0  0  0
  7  8  2  0  0  0  0
  7 19  1  0  0  0  0
  8  9  1  0  0  0  0
  8 30  1  0  0  0  0
  9 10  2  0  0  0  0
  9 31  1  0  0  0  0
 10 11  1  0  0  0  0
 10 32  1  0  0  0  0
 11 12  1  0  0  0  0
 11 19  2  0  0  0  0
 12 13  2  0  0  0  0
 12 18  1  0  0  0  0
 13 14  1  0  0  0  0
 13 33  1  0  0  0  0
 14 15  2  0  0  0  0
 14 34  1  0  0  0  0
 15 16  1  0  0  0  0
 15 35  1  0  0  0  0
 16 18  2  0  0  0  0
 16 17  1  0  0  0  0
 18 36  1  0  0  0  0
 19 37  1  0  0  0  0
 20 21  1  0  0  0  0
 20 22  1  0  0  0  0
 20 38  1  0  0  0  0
 21 22  1  0  0  0  0
 21 39  1  0  0  0  0
 21 40  1  0  0  0  0
 22 41  1  0  0  0  0
 22 42  1  0  0  0  0
 23 24  2  0  0  0  0
M  CHG  1   5   1
M  END
$$$$
