p38a_2bb
 OpenBabel02232411163D
Structure written by MMmdl.
 44 46  0  0  0  0  0  0  0  0999 V2000
   38.2960   36.5430   17.1600 C   0  0  0  0  0  0  0  0  0  0  0  0
   34.4140   35.0640   21.1660 C   0  0  0  0  0  0  0  0  0  0  0  0
   37.5210   36.0800   18.2190 C   0  0  0  0  0  0  0  0  0  0  0  0
   33.7360   39.1340   23.6870 C   0  0  0  0  0  0  0  0  0  0  0  0
   32.4290   39.1610   25.8420 C   0  0  0  0  0  0  0  0  0  0  0  0
   34.5870   37.9390   21.3560 C   0  0  0  0  0  0  0  0  0  0  0  0
   35.0720   37.2780   20.1730 C   0  0  0  0  0  0  0  0  0  0  0  0
   37.6420   36.6960   15.9300 C   0  0  0  0  0  0  0  0  0  0  0  0
   36.2940   36.3850   15.7290 C   0  0  0  0  0  0  0  0  0  0  0  0
   35.5410   35.9070   16.8060 C   0  0  0  0  0  0  0  0  0  0  0  0
   34.0320   37.1740   22.4240 C   0  0  0  0  0  0  0  0  0  0  0  0
   34.6460   39.3450   21.5360 C   0  0  0  0  0  0  0  0  0  0  0  0
   35.0090   35.9290   20.1090 C   0  0  0  0  0  0  0  0  0  0  0  0
   36.1610   35.7440   18.0480 C   0  0  0  0  0  0  0  0  0  0  0  0
   33.3380   35.0200   23.4560 C   0  0  0  0  0  0  0  0  0  0  0  0
   38.0570   35.9510   19.4260 F   0  0  0  0  0  0  0  0  0  0  0  0
   35.4580   35.1060   19.0800 O   0  0  0  0  0  0  0  0  0  0  0  0
   34.2470   39.9530   22.6660 N   0  0  0  0  0  0  0  0  0  0  0  0
   34.3140   33.8590   21.1150 O   0  0  0  0  0  0  0  0  0  0  0  0
   33.9370   35.7780   22.3220 N   0  0  0  0  0  0  0  0  0  0  0  0
   33.5890   37.7700   23.5810 N   0  0  0  0  0  0  0  0  0  0  0  0
   33.4220   39.7490   24.8920 N   0  0  0  0  0  0  0  0  0  0  0  0
   39.3480   36.8120   17.2910 H   0  0  0  0  0  0  0  0  0  0  0  0
   31.6420   38.5970   25.2620 H   0  0  0  0  0  0  0  0  0  0  0  0
   35.4830   37.8970   19.3720 H   0  0  0  0  0  0  0  0  0  0  0  0
   35.8180   36.5250   14.7560 H   0  0  0  0  0  0  0  0  0  0  0  0
   34.4780   35.6810   16.6710 H   0  0  0  0  0  0  0  0  0  0  0  0
   35.0220   39.9890   20.7260 H   0  0  0  0  0  0  0  0  0  0  0  0
   33.9040   35.2350   24.4030 H   0  0  0  0  0  0  0  0  0  0  0  0
   32.2720   35.3420   23.6080 H   0  0  0  0  0  0  0  0  0  0  0  0
   33.3670   33.9190   23.2480 H   0  0  0  0  0  0  0  0  0  0  0  0
   33.5070   40.7830   24.9410 H   0  0  0  0  0  0  0  0  0  0  0  0
   38.3310   37.2010   14.9100 F   0  0  0  0  0  0  0  0  0  0  0  0
   33.0750   38.1910   26.8360 C   0  0  0  0  0  0  0  0  0  0  0  0
   31.9300   40.0190   26.3710 H   0  0  0  0  0  0  0  0  0  0  0  0
   32.2760   37.4610   27.1550 H   0  0  0  0  0  0  0  0  0  0  0  0
   33.8250   37.5630   26.2740 H   0  0  0  0  0  0  0  0  0  0  0  0
   35.0570   39.9670   27.6690 C   0  0  0  0  0  0  0  0  0  0  0  0
   33.8220   38.8980   28.2620 S   0  0  0  0  0  0  0  0  0  0  0  0
   32.8240   39.6390   29.0680 O   0  0  0  0  0  0  0  0  0  0  0  0
   34.4340   37.8170   29.0770 O   0  0  0  0  0  0  0  0  0  0  0  0
   35.6440   39.5100   26.8320 H   0  0  0  0  0  0  0  0  0  0  0  0
   34.6300   40.9260   27.2650 H   0  0  0  0  0  0  0  0  0  0  0  0
   35.7870   40.2620   28.4670 H   0  0  0  0  0  0  0  0  0  0  0  0
  1  3  2  0  0  0  0
  1  8  1  0  0  0  0
  1 23  1  0  0  0  0
  2 13  1  0  0  0  0
  2 19  2  0  0  0  0
  2 20  1  0  0  0  0
  3 14  1  0  0  0  0
  3 16  1  0  0  0  0
  4 18  2  0  0  0  0
  4 21  1  0  0  0  0
  4 22  1  0  0  0  0
  5 22  1  0  0  0  0
  5 24  1  0  0  0  0
  5 34  1  0  0  0  0
  5 35  1  0  0  0  0
  6  7  1  0  0  0  0
  6 11  1  0  0  0  0
  6 12  2  0  0  0  0
  7 13  2  0  0  0  0
  7 25  1  0  0  0  0
  8  9  2  0  0  0  0
  8 33  1  0  0  0  0
  9 10  1  0  0  0  0
  9 26  1  0  0  0  0
 10 14  2  0  0  0  0
 10 27  1  0  0  0  0
 11 20  1  0  0  0  0
 11 21  2  0  0  0  0
 12 18  1  0  0  0  0
 12 28  1  0  0  0  0
 13 17  1  0  0  0  0
 14 17  1  0  0  0  0
 15 20  1  0  0  0  0
 15 29  1  0  0  0  0
 15 30  1  0  0  0  0
 15 31  1  0  0  0  0
 22 32  1  0  0  0  0
 34 36  1  0  0  0  0
 34 37  1  0  0  0  0
 34 39  1  0  0  0  0
 38 39  1  0  0  0  0
 38 42  1  0  0  0  0
 38 43  1  0  0  0  0
 38 44  1  0  0  0  0
 39 40  2  0  0  0  0
 39 41  2  0  0  0  0
M  END
$$$$
