p38a_2aa
 OpenBabel02232411163D
Structure written by MMmdl.
 43 45  0  0  0  0  0  0  0  0999 V2000
   38.2690   36.5410   17.1650 C   0  0  0  0  0  0  0  0  0  0  0  0
   34.5900   35.1780   21.2930 C   0  0  0  0  0  0  0  0  0  0  0  0
   37.4850   36.1090   18.2310 C   0  0  0  0  0  0  0  0  0  0  0  0
   33.9680   39.2760   23.7770 C   0  0  0  0  0  0  0  0  0  0  0  0
   33.6300   39.2100   26.2600 C   0  0  0  0  0  0  0  0  0  0  0  0
   34.6130   38.0600   21.3920 C   0  0  0  0  0  0  0  0  0  0  0  0
   34.9980   37.3910   20.1770 C   0  0  0  0  0  0  0  0  0  0  0  0
   37.6160   36.6970   15.9350 C   0  0  0  0  0  0  0  0  0  0  0  0
   36.2620   36.4160   15.7400 C   0  0  0  0  0  0  0  0  0  0  0  0
   35.4980   35.9720   16.8240 C   0  0  0  0  0  0  0  0  0  0  0  0
   34.3240   37.2960   22.5620 C   0  0  0  0  0  0  0  0  0  0  0  0
   34.5190   39.4720   21.5070 C   0  0  0  0  0  0  0  0  0  0  0  0
   35.0190   36.0390   20.1570 C   0  0  0  0  0  0  0  0  0  0  0  0
   36.1150   35.8120   18.0680 C   0  0  0  0  0  0  0  0  0  0  0  0
   34.0090   35.1280   23.7510 C   0  0  0  0  0  0  0  0  0  0  0  0
   38.0230   35.9710   19.4360 F   0  0  0  0  0  0  0  0  0  0  0  0
   35.3940   35.2060   19.1060 O   0  0  0  0  0  0  0  0  0  0  0  0
   34.2110   40.0920   22.6590 N   0  0  0  0  0  0  0  0  0  0  0  0
   34.4560   33.9740   21.2550 O   0  0  0  0  0  0  0  0  0  0  0  0
   34.3240   35.8940   22.5120 N   0  0  0  0  0  0  0  0  0  0  0  0
   34.0260   37.9010   23.7590 N   0  0  0  0  0  0  0  0  0  0  0  0
   33.5520   39.9060   24.9420 N   0  0  0  0  0  0  0  0  0  0  0  0
   39.3280   36.7840   17.2910 H   0  0  0  0  0  0  0  0  0  0  0  0
   33.8200   40.2380   27.4060 C   0  0  0  0  0  0  0  0  0  0  0  0
   35.2700   38.0020   19.3140 H   0  0  0  0  0  0  0  0  0  0  0  0
   35.7890   36.5520   14.7650 H   0  0  0  0  0  0  0  0  0  0  0  0
   34.4300   35.7680   16.6930 H   0  0  0  0  0  0  0  0  0  0  0  0
   34.6990   40.1100   20.6260 H   0  0  0  0  0  0  0  0  0  0  0  0
   34.7100   35.4290   24.5770 H   0  0  0  0  0  0  0  0  0  0  0  0
   32.9580   35.3490   24.0830 H   0  0  0  0  0  0  0  0  0  0  0  0
   34.1120   34.0280   23.5660 H   0  0  0  0  0  0  0  0  0  0  0  0
   33.6310   40.9390   24.9870 H   0  0  0  0  0  0  0  0  0  0  0  0
   38.3160   37.1760   14.9090 F   0  0  0  0  0  0  0  0  0  0  0  0
   32.3280   38.4040   26.5070 C   0  0  0  0  0  0  0  0  0  0  0  0
   31.1900   39.2600   26.6530 O   0  0  0  0  0  0  0  0  0  0  0  0
   31.0330   39.7590   25.8210 H   0  0  0  0  0  0  0  0  0  0  0  0
   32.1430   37.6800   25.6810 H   0  0  0  0  0  0  0  0  0  0  0  0
   32.3830   37.8800   27.4930 H   0  0  0  0  0  0  0  0  0  0  0  0
   34.9300   41.1140   27.1580 O   0  0  0  0  0  0  0  0  0  0  0  0
   32.8980   40.8480   27.5470 H   0  0  0  0  0  0  0  0  0  0  0  0
   34.1040   39.7020   28.3430 H   0  0  0  0  0  0  0  0  0  0  0  0
   34.6020   41.8350   26.5300 H   0  0  0  0  0  0  0  0  0  0  0  0
   34.4930   38.4820   26.2710 H   0  0  0  0  0  0  0  0  0  0  0  0
  1  3  2  0  0  0  0
  1  8  1  0  0  0  0
  1 23  1  0  0  0  0
  2 13  1  0  0  0  0
  2 19  2  0  0  0  0
  2 20  1  0  0  0  0
  3 14  1  0  0  0  0
  3 16  1  0  0  0  0
  4 18  2  0  0  0  0
  4 21  1  0  0  0  0
  4 22  1  0  0  0  0
  5 22  1  0  0  0  0
  5 24  1  0  0  0  0
  5 34  1  0  0  0  0
  5 43  1  0  0  0  0
  6  7  1  0  0  0  0
  6 11  1  0  0  0  0
  6 12  2  0  0  0  0
  7 13  2  0  0  0  0
  7 25  1  0  0  0  0
  8  9  2  0  0  0  0
  8 33  1  0  0  0  0
  9 10  1  0  0  0  0
  9 26  1  0  0  0  0
 10 14  2  0  0  0  0
 10 27  1  0  0  0  0
 11 20  1  0  0  0  0
 11 21  2  0  0  0  0
 12 18  1  0  0  0  0
 12 28  1  0  0  0  0
 13 17  1  0  0  0  0
 14 17  1  0  0  0  0
 15 20  1  0  0  0  0
 15 29  1  0  0  0  0
 15 30  1  0  0  0  0
 15 31  1  0  0  0  0
 22 32  1  0  0  0  0
 24 39  1  0  0  0  0
 24 40  1  0  0  0  0
 24 41  1  0  0  0  0
 34 35  1  0  0  0  0
 34 37  1  0  0  0  0
 34 38  1  0  0  0  0
 35 36  1  0  0  0  0
 39 42  1  0  0  0  0
M  END
$$$$
