32
 OpenBabel02232411153D
Structure written by MMmdl.
 54 57  0  0  0  0  0  0  0  0999 V2000
    1.7670   28.9090    6.7890 C   0  0  0  0  0  0  0  0  0  0  0  0
   -1.6650   31.5320    8.0120 C   0  0  0  0  0  0  0  0  0  0  0  0
   -0.1880   26.0350    8.8920 C   0  0  0  0  0  0  0  0  0  0  0  0
   -0.9320   25.3200   10.0270 C   0  0  0  0  0  0  0  0  0  0  0  0
   -0.7150   23.8020    9.8280 C   0  0  0  0  0  0  0  0  0  0  0  0
   -1.3200   22.9920   10.9840 C   0  0  0  0  0  0  0  0  0  0  0  0
   -0.7820   23.4670   12.3430 C   0  0  0  0  0  0  0  0  0  0  0  0
   -1.0330   24.9700   12.5450 C   0  0  0  0  0  0  0  0  0  0  0  0
   -0.4180   25.7900   11.4020 C   0  0  0  0  0  0  0  0  0  0  0  0
    4.2080   25.4230    7.9880 C   0  0  0  0  0  0  0  0  0  0  0  0
    5.0450   24.8540    7.0100 C   0  0  0  0  0  0  0  0  0  0  0  0
    5.2170   25.5750    5.8090 C   0  0  0  0  0  0  0  0  0  0  0  0
    4.5550   26.7890    5.5720 C   0  0  0  0  0  0  0  0  0  0  0  0
    1.0410   27.9520    7.4890 N   0  0  0  0  0  0  0  0  0  0  0  0
   -0.1370   28.2900    8.0760 C   0  0  0  0  0  0  0  0  0  0  0  0
   -0.8070   27.3860    8.8040 O   0  0  0  0  0  0  0  0  0  0  0  0
   -0.6430   29.6080    7.9280 C   0  0  0  0  0  0  0  0  0  0  0  0
   -1.7780   30.2640    8.4160 N   0  0  0  0  0  0  0  0  0  0  0  0
   -0.4580   31.7590    7.2620 N   0  0  0  0  0  0  0  0  0  0  0  0
    0.1930   30.5330    7.1800 C   0  0  0  0  0  0  0  0  0  0  0  0
    1.3860   30.2170    6.5730 N   0  0  0  0  0  0  0  0  0  0  0  0
    2.9850   28.4940    6.2390 N   0  0  0  0  0  0  0  0  0  0  0  0
    3.6800   27.2910    6.5480 C   0  0  0  0  0  0  0  0  0  0  0  0
    3.5460   26.6210    7.7850 C   0  0  0  0  0  0  0  0  0  0  0  0
   -2.3590   32.3410    8.2200 H   0  0  0  0  0  0  0  0  0  0  0  0
    0.8950   26.1440    9.1240 H   0  0  0  0  0  0  0  0  0  0  0  0
   -0.3580   25.5640    7.9030 H   0  0  0  0  0  0  0  0  0  0  0  0
   -2.0250   25.5420    9.9680 H   0  0  0  0  0  0  0  0  0  0  0  0
   -1.1880   23.4820    8.8740 H   0  0  0  0  0  0  0  0  0  0  0  0
    0.3820   23.5890    9.7770 H   0  0  0  0  0  0  0  0  0  0  0  0
   -2.4250   23.1100   10.9750 H   0  0  0  0  0  0  0  0  0  0  0  0
   -1.0700   21.9140   10.8500 H   0  0  0  0  0  0  0  0  0  0  0  0
   -1.2790   22.8940   13.1590 H   0  0  0  0  0  0  0  0  0  0  0  0
    0.3150   23.2720   12.3850 H   0  0  0  0  0  0  0  0  0  0  0  0
   -2.1290   25.1600   12.6050 H   0  0  0  0  0  0  0  0  0  0  0  0
   -0.5700   25.2920   13.5060 H   0  0  0  0  0  0  0  0  0  0  0  0
    0.6930   25.6780   11.4470 H   0  0  0  0  0  0  0  0  0  0  0  0
   -0.6690   26.8660   11.5420 H   0  0  0  0  0  0  0  0  0  0  0  0
    4.0460   24.9140    8.9460 H   0  0  0  0  0  0  0  0  0  0  0  0
    4.6970   27.3490    4.6500 H   0  0  0  0  0  0  0  0  0  0  0  0
   -0.1830   32.6370    6.7980 H   0  0  0  0  0  0  0  0  0  0  0  0
    3.4810   29.1360    5.5750 H   0  0  0  0  0  0  0  0  0  0  0  0
    2.9140   27.0230    8.5760 H   0  0  0  0  0  0  0  0  0  0  0  0
    5.8200   23.3560    7.3330 S   0  0  0  0  0  0  0  0  0  0  0  0
    5.8440   22.5260    6.1200 O   0  0  0  0  0  0  0  0  0  0  0  0
    7.1400   23.6270    7.9110 O   0  0  0  0  0  0  0  0  0  0  0  0
    4.8630   22.5140    8.4470 N   0  0  0  0  0  0  0  0  0  0  0  0
    3.9090   22.2050    8.2170 H   0  0  0  0  0  0  0  0  0  0  0  0
    4.9270   22.8080    9.4650 H   0  0  0  0  0  0  0  0  0  0  0  0
    6.0550   24.9720    4.9170 O   0  0  0  0  0  0  0  0  0  0  0  0
    6.3040   25.6290    3.6410 C   0  0  0  0  0  0  0  0  0  0  0  0
    7.0410   24.9340    3.1700 H   0  0  0  0  0  0  0  0  0  0  0  0
    5.3620   25.6770    3.0540 H   0  0  0  0  0  0  0  0  0  0  0  0
    6.7540   26.6300    3.8100 H   0  0  0  0  0  0  0  0  0  0  0  0
  1 14  2  0  0  0  0
  1 21  1  0  0  0  0
  1 22  1  0  0  0  0
  2 18  2  0  0  0  0
  2 19  1  0  0  0  0
  2 25  1  0  0  0  0
  3  4  1  0  0  0  0
  3 16  1  0  0  0  0
  3 26  1  0  0  0  0
  3 27  1  0  0  0  0
  4  5  1  0  0  0  0
  4  9  1  0  0  0  0
  4 28  1  0  0  0  0
  5  6  1  0  0  0  0
  5 29  1  0  0  0  0
  5 30  1  0  0  0  0
  6  7  1  0  0  0  0
  6 31  1  0  0  0  0
  6 32  1  0  0  0  0
  7  8  1  0  0  0  0
  7 33  1  0  0  0  0
  7 34  1  0  0  0  0
  8  9  1  0  0  0  0
  8 35  1  0  0  0  0
  8 36  1  0  0  0  0
  9 37  1  0  0  0  0
  9 38  1  0  0  0  0
 10 11  2  0  0  0  0
 10 24  1  0  0  0  0
 10 39  1  0  0  0  0
 11 12  1  0  0  0  0
 11 44  1  0  0  0  0
 12 13  2  0  0  0  0
 12 50  1  0  0  0  0
 13 23  1  0  0  0  0
 13 40  1  0  0  0  0
 14 15  1  0  0  0  0
 15 16  1  0  0  0  0
 15 17  2  0  0  0  0
 17 18  1  0  0  0  0
 17 20  1  0  0  0  0
 19 20  1  0  0  0  0
 19 41  1  0  0  0  0
 20 21  2  0  0  0  0
 22 23  1  0  0  0  0
 22 42  1  0  0  0  0
 23 24  2  0  0  0  0
 24 43  1  0  0  0  0
 44 45  2  0  0  0  0
 44 46  2  0  0  0  0
 44 47  1  0  0  0  0
 47 49  1  0  0  0  0
 47 48  1  0  0  0  0
 50 51  1  0  0  0  0
 51 52  1  0  0  0  0
 51 53  1  0  0  0  0
 51 54  1  0  0  0  0
M  END
$$$$
