p38a_2f
 OpenBabel02232411163D
Structure written by MMmdl.
 46 49  0  0  0  0  0  0  0  0999 V2000
   34.1250   38.4130   27.0900 C   0  0  0  0  0  0  0  0  0  0  0  0
   33.5460   37.9250   28.4250 C   0  0  0  0  0  0  0  0  0  0  0  0
   31.2770   38.3450   27.6980 C   0  0  0  0  0  0  0  0  0  0  0  0
   31.7510   38.8450   26.3270 C   0  0  0  0  0  0  0  0  0  0  0  0
   37.1040   35.8460   16.3120 C   0  0  0  0  0  0  0  0  0  0  0  0
   32.2080   37.3980   28.2710 O   0  0  0  0  0  0  0  0  0  0  0  0
   34.2400   35.2410   21.4010 C   0  0  0  0  0  0  0  0  0  0  0  0
   35.9240   35.6000   17.0170 C   0  0  0  0  0  0  0  0  0  0  0  0
   33.8700   39.3170   23.9970 C   0  0  0  0  0  0  0  0  0  0  0  0
   33.1660   39.4430   26.4660 C   0  0  0  0  0  0  0  0  0  0  0  0
   34.3740   38.1130   21.5690 C   0  0  0  0  0  0  0  0  0  0  0  0
   34.6660   37.4660   20.3270 C   0  0  0  0  0  0  0  0  0  0  0  0
   38.3210   36.1520   16.9240 C   0  0  0  0  0  0  0  0  0  0  0  0
   38.3540   36.2300   18.3200 C   0  0  0  0  0  0  0  0  0  0  0  0
   37.2090   35.9870   19.0790 C   0  0  0  0  0  0  0  0  0  0  0  0
   34.0510   37.3430   22.7280 C   0  0  0  0  0  0  0  0  0  0  0  0
   34.4030   39.5280   21.7160 C   0  0  0  0  0  0  0  0  0  0  0  0
   34.6130   36.1110   20.2670 C   0  0  0  0  0  0  0  0  0  0  0  0
   36.0110   35.6910   18.4130 C   0  0  0  0  0  0  0  0  0  0  0  0
   33.6950   35.1600   23.8720 C   0  0  0  0  0  0  0  0  0  0  0  0
   34.9740   35.4070   16.5120 H   0  0  0  0  0  0  0  0  0  0  0  0
   34.8210   35.3920   19.0850 O   0  0  0  0  0  0  0  0  0  0  0  0
   34.1670   40.1390   22.8800 N   0  0  0  0  0  0  0  0  0  0  0  0
   34.1280   34.0350   21.3760 O   0  0  0  0  0  0  0  0  0  0  0  0
   33.9890   35.9470   22.6420 N   0  0  0  0  0  0  0  0  0  0  0  0
   33.7930   37.9420   23.9400 N   0  0  0  0  0  0  0  0  0  0  0  0
   33.6830   39.9920   25.1770 N   0  0  0  0  0  0  0  0  0  0  0  0
   35.1240   38.8810   27.2660 H   0  0  0  0  0  0  0  0  0  0  0  0
   34.2640   37.5440   26.4000 H   0  0  0  0  0  0  0  0  0  0  0  0
   34.1070   37.0390   28.8060 H   0  0  0  0  0  0  0  0  0  0  0  0
   33.5260   38.7470   29.1770 H   0  0  0  0  0  0  0  0  0  0  0  0
   31.1430   39.1890   28.4110 H   0  0  0  0  0  0  0  0  0  0  0  0
   30.3480   37.7360   27.6080 H   0  0  0  0  0  0  0  0  0  0  0  0
   31.7670   37.9910   25.6070 H   0  0  0  0  0  0  0  0  0  0  0  0
   31.0470   39.6180   25.9410 H   0  0  0  0  0  0  0  0  0  0  0  0
   37.0630   35.8000   14.9830 F   0  0  0  0  0  0  0  0  0  0  0  0
   33.1150   40.3490   27.1450 H   0  0  0  0  0  0  0  0  0  0  0  0
   34.9440   38.0840   19.4680 H   0  0  0  0  0  0  0  0  0  0  0  0
   39.2920   36.4870   18.8140 H   0  0  0  0  0  0  0  0  0  0  0  0
   37.2460   36.0590   20.1640 H   0  0  0  0  0  0  0  0  0  0  0  0
   34.6170   40.1620   20.8400 H   0  0  0  0  0  0  0  0  0  0  0  0
   34.4910   35.3480   24.6420 H   0  0  0  0  0  0  0  0  0  0  0  0
   32.7050   35.4740   24.3000 H   0  0  0  0  0  0  0  0  0  0  0  0
   33.6620   34.0650   23.6340 H   0  0  0  0  0  0  0  0  0  0  0  0
   33.7280   41.0330   25.1600 H   0  0  0  0  0  0  0  0  0  0  0  0
   39.2160   36.3660   16.3460 H   0  0  0  0  0  0  0  0  0  0  0  0
  1  2  1  0  0  0  0
  1 10  1  0  0  0  0
  1 28  1  0  0  0  0
  1 29  1  0  0  0  0
  2  6  1  0  0  0  0
  2 30  1  0  0  0  0
  2 31  1  0  0  0  0
  3  4  1  0  0  0  0
  3  6  1  0  0  0  0
  3 32  1  0  0  0  0
  3 33  1  0  0  0  0
  4 10  1  0  0  0  0
  4 34  1  0  0  0  0
  4 35  1  0  0  0  0
  5  8  2  0  0  0  0
  5 13  1  0  0  0  0
  5 36  1  0  0  0  0
  7 18  1  0  0  0  0
  7 24  2  0  0  0  0
  7 25  1  0  0  0  0
  8 19  1  0  0  0  0
  8 21  1  0  0  0  0
  9 23  2  0  0  0  0
  9 26  1  0  0  0  0
  9 27  1  0  0  0  0
 10 27  1  0  0  0  0
 10 37  1  0  0  0  0
 11 12  1  0  0  0  0
 11 16  1  0  0  0  0
 11 17  2  0  0  0  0
 12 18  2  0  0  0  0
 12 38  1  0  0  0  0
 13 14  2  0  0  0  0
 13 46  1  0  0  0  0
 14 15  1  0  0  0  0
 14 39  1  0  0  0  0
 15 19  2  0  0  0  0
 15 40  1  0  0  0  0
 16 25  1  0  0  0  0
 16 26  2  0  0  0  0
 17 23  1  0  0  0  0
 17 41  1  0  0  0  0
 18 22  1  0  0  0  0
 19 22  1  0  0  0  0
 20 25  1  0  0  0  0
 20 42  1  0  0  0  0
 20 43  1  0  0  0  0
 20 44  1  0  0  0  0
 27 45  1  0  0  0  0
M  END
$$$$
