CAT-13e
 OpenBabel02232411143D
Structure written by MMmdl.
 46 49  0  0  1  0  0  0  0  0999 V2000
   11.6290   -2.3440    1.1960 C   0  0  0  0  0  0  0  0  0  0  0  0
   12.9470   -2.2340    0.5350 N   0  0  0  0  0  0  0  0  0  0  0  0
   14.1640   -2.2030    1.2100 C   0  0  0  0  0  0  0  0  0  0  0  0
   14.3480   -2.2930    2.5560 N   0  0  0  0  0  0  0  0  0  0  0  0
   15.2210   -2.0940    0.2870 N   0  3  0  0  0  0  0  0  0  0  0  0
   14.7180   -2.4340   -1.1030 C   0  0  1  0  0  0  0  0  0  0  0  0
   15.1610   -1.3920   -2.1180 C   0  0  0  0  0  0  0  0  0  0  0  0
   15.5850   -1.7670   -3.4010 C   0  0  0  0  0  0  0  0  0  0  0  0
   15.9840   -0.7910   -4.3180 C   0  0  0  0  0  0  0  0  0  0  0  0
   15.9170    0.5630   -3.9890 C   0  0  0  0  0  0  0  0  0  0  0  0
   15.4430    0.9530   -2.7240 C   0  0  0  0  0  0  0  0  0  0  0  0
   15.2560    2.3830   -2.3950 C   0  0  0  0  0  0  0  0  0  0  0  0
   15.6020    2.8810   -1.1300 C   0  0  0  0  0  0  0  0  0  0  0  0
   15.2950    4.1990   -0.7790 C   0  0  0  0  0  0  0  0  0  0  0  0
   14.6760    5.0480   -1.7000 C   0  0  0  0  0  0  0  0  0  0  0  0
   14.4030    4.5600   -2.9810 C   0  0  0  0  0  0  0  0  0  0  0  0
   13.7040    5.6120   -4.1460 Cl  0  0  0  0  0  0  0  0  0  0  0  0
   14.6690    3.2390   -3.3430 C   0  0  0  0  0  0  0  0  0  0  0  0
   15.0910   -0.0310   -1.7870 C   0  0  0  0  0  0  0  0  0  0  0  0
   15.0620   -3.8820   -1.4920 C   0  0  0  0  0  0  0  0  0  0  0  0
   16.5790   -4.1300   -1.7000 C   0  0  0  0  0  0  0  0  0  0  0  0
   16.5560   -5.1850   -0.5750 C   0  0  0  0  0  0  0  0  0  0  0  0
   15.0400   -4.9570   -0.3670 C   0  0  0  0  0  0  0  0  0  0  0  0
   13.1710   -2.3370   -0.9230 C   0  0  0  0  0  0  0  0  0  0  0  0
   12.2700   -2.3210   -1.6980 O   0  0  0  0  0  0  0  0  0  0  0  0
   11.0370   -3.1630    0.7020 H   0  0  0  0  0  0  0  0  0  0  0  0
   11.0830   -1.3680    1.1010 H   0  0  0  0  0  0  0  0  0  0  0  0
   11.7440   -2.6020    2.2810 H   0  0  0  0  0  0  0  0  0  0  0  0
   13.6330   -1.9640    3.2500 H   0  0  0  0  0  0  0  0  0  0  0  0
   16.1600   -2.4600    0.6110 H   0  0  0  0  0  0  0  0  0  0  0  0
   15.6140   -2.8140   -3.7080 H   0  0  0  0  0  0  0  0  0  0  0  0
   16.3550   -1.0930   -5.3030 H   0  0  0  0  0  0  0  0  0  0  0  0
   16.2390    1.3100   -4.7230 H   0  0  0  0  0  0  0  0  0  0  0  0
   16.0940    2.2290   -0.4040 H   0  0  0  0  0  0  0  0  0  0  0  0
   15.5280    4.5510    0.2300 H   0  0  0  0  0  0  0  0  0  0  0  0
   14.3930    6.0620   -1.4130 H   0  0  0  0  0  0  0  0  0  0  0  0
   14.4110    2.8710   -4.3410 H   0  0  0  0  0  0  0  0  0  0  0  0
   14.7640    0.2570   -0.7880 H   0  0  0  0  0  0  0  0  0  0  0  0
   14.4450   -4.1930   -2.3620 H   0  0  0  0  0  0  0  0  0  0  0  0
   17.2140   -3.2560   -1.4580 H   0  0  0  0  0  0  0  0  0  0  0  0
   16.8380   -4.5270   -2.6900 H   0  0  0  0  0  0  0  0  0  0  0  0
   16.8260   -6.2080   -0.8610 H   0  0  0  0  0  0  0  0  0  0  0  0
   17.1740   -4.8460    0.2630 H   0  0  0  0  0  0  0  0  0  0  0  0
   14.7780   -4.6050    0.6430 H   0  0  0  0  0  0  0  0  0  0  0  0
   14.4100   -5.8280   -0.6240 H   0  0  0  0  0  0  0  0  0  0  0  0
   15.3300   -2.2790    2.9470 H   0  0  0  0  0  0  0  0  0  0  0  0
  1  2  1  0  0  0  0
  1 26  1  0  0  0  0
  1 27  1  0  0  0  0
  1 28  1  0  0  0  0
  2  3  1  0  0  0  0
  2 24  1  0  0  0  0
  3  4  1  0  0  0  0
  3  5  2  0  0  0  0
  4 29  1  0  0  0  0
  4 46  1  0  0  0  0
  5  6  1  0  0  0  0
  5 30  1  0  0  0  0
  6  7  1  6  0  0  0
  6 20  1  0  0  0  0
  6 24  1  0  0  0  0
  7  8  2  0  0  0  0
  7 19  1  0  0  0  0
  8  9  1  0  0  0  0
  8 31  1  0  0  0  0
  9 10  2  0  0  0  0
  9 32  1  0  0  0  0
 10 11  1  0  0  0  0
 10 33  1  0  0  0  0
 11 12  1  0  0  0  0
 11 19  2  0  0  0  0
 12 13  2  0  0  0  0
 12 18  1  0  0  0  0
 13 14  1  0  0  0  0
 13 34  1  0  0  0  0
 14 15  2  0  0  0  0
 14 35  1  0  0  0  0
 15 16  1  0  0  0  0
 15 36  1  0  0  0  0
 16 17  1  0  0  0  0
 16 18  2  0  0  0  0
 18 37  1  0  0  0  0
 19 38  1  0  0  0  0
 20 21  1  0  0  0  0
 20 23  1  0  0  0  0
 20 39  1  0  0  0  0
 21 22  1  0  0  0  0
 21 40  1  0  0  0  0
 21 41  1  0  0  0  0
 22 23  1  0  0  0  0
 22 42  1  0  0  0  0
 22 43  1  0  0  0  0
 23 44  1  0  0  0  0
 23 45  1  0  0  0  0
 24 25  2  0  0  0  0
M  CHG  1   5   1
M  END
$$$$
