18638-1
 OpenBabel02232411163D
Structure written by MMmdl.
 52 53  0  0  0  0  0  0  0  0999 V2000
   23.3260   10.5870   29.0480 C   0  0  0  0  0  0  0  0  0  0  0  0
   23.5980   10.8760   30.5100 C   0  0  0  0  0  0  0  0  0  0  0  0
   22.3320   11.0090   31.2620 O   0  0  0  0  0  0  0  0  0  0  0  0
   21.6570    9.8950   31.6200 C   0  0  0  0  0  0  0  0  0  0  0  0
   22.1150    8.6830   31.2270 N   0  0  0  0  0  0  0  0  0  0  0  0
   21.3530    7.5750   31.5540 C   0  0  0  0  0  0  0  0  0  0  0  0
   20.1790    7.6620   32.2960 C   0  0  0  0  0  0  0  0  0  0  0  0
   19.7160    8.9350   32.7250 C   0  0  0  0  0  0  0  0  0  0  0  0
   18.5500    9.0210   33.4430 N   0  0  0  0  0  0  0  0  0  0  0  0
   20.4670   10.1040   32.3800 C   0  0  0  0  0  0  0  0  0  0  0  0
   20.0820   11.4200   32.7160 C   0  0  0  0  0  0  0  0  0  0  0  0
   19.8100   12.5220   32.9560 N   0  0  0  0  0  0  0  0  0  0  0  0
   21.8940    6.3760   31.0260 N   0  0  0  0  0  0  0  0  0  0  0  0
   21.1690    5.1770   30.8440 C   0  0  0  0  0  0  0  0  0  0  0  0
   20.0520    5.0180   31.2890 O   0  0  0  0  0  0  0  0  0  0  0  0
   21.8650    4.1530   29.9640 C   0  0  0  0  0  0  0  0  0  0  0  0
   23.2020    3.6740   30.4480 C   0  0  0  0  0  0  0  0  0  0  0  0
   24.3890    4.3530   30.0370 C   0  0  0  0  0  0  0  0  0  0  0  0
   24.1250    5.4820   29.2650 O   0  0  0  0  0  0  0  0  0  0  0  0
   25.1780    6.4790   29.1870 C   0  0  0  0  0  0  0  0  0  0  0  0
   25.6490    3.8650   30.3530 C   0  0  0  0  0  0  0  0  0  0  0  0
   25.7860    2.6830   31.1100 C   0  0  0  0  0  0  0  0  0  0  0  0
   27.4120    2.0930   31.3830 S   0  0  0  0  0  0  0  0  0  0  0  0
   28.0830    1.8710   30.0790 O   0  0  0  0  0  0  0  0  0  0  0  0
   27.3280    0.8280   32.1540 O   0  0  0  0  0  0  0  0  0  0  0  0
   28.2000    3.3300   32.3110 C   0  0  0  0  0  0  0  0  0  0  0  0
   24.6240    2.0450   31.5660 C   0  0  0  0  0  0  0  0  0  0  0  0
   23.3340    2.5380   31.2250 C   0  0  0  0  0  0  0  0  0  0  0  0
   24.8300    0.9300   32.3330 O   0  0  0  0  0  0  0  0  0  0  0  0
   23.6790    0.3340   33.0000 C   0  0  0  0  0  0  0  0  0  0  0  0
   22.9270    9.5550   28.9090 H   0  0  0  0  0  0  0  0  0  0  0  0
   22.6010   11.3140   28.6180 H   0  0  0  0  0  0  0  0  0  0  0  0
   24.2840   10.6690   28.4760 H   0  0  0  0  0  0  0  0  0  0  0  0
   24.0080   11.9020   30.6690 H   0  0  0  0  0  0  0  0  0  0  0  0
   24.2310   10.0920   30.9830 H   0  0  0  0  0  0  0  0  0  0  0  0
   19.5960    6.7720   32.5370 H   0  0  0  0  0  0  0  0  0  0  0  0
   18.0310    8.1650   33.7190 H   0  0  0  0  0  0  0  0  0  0  0  0
   18.1710    9.9200   33.7380 H   0  0  0  0  0  0  0  0  0  0  0  0
   22.8340    6.4590   30.5760 H   0  0  0  0  0  0  0  0  0  0  0  0
   21.1850    3.2700   29.8460 H   0  0  0  0  0  0  0  0  0  0  0  0
   22.0020    4.6410   28.9560 H   0  0  0  0  0  0  0  0  0  0  0  0
   24.6270    7.3650   28.7960 H   0  0  0  0  0  0  0  0  0  0  0  0
   25.6010    6.6870   30.1940 H   0  0  0  0  0  0  0  0  0  0  0  0
   25.9570    6.1330   28.4750 H   0  0  0  0  0  0  0  0  0  0  0  0
   26.5380    4.4070   30.0130 H   0  0  0  0  0  0  0  0  0  0  0  0
   28.2580    4.3090   31.7640 H   0  0  0  0  0  0  0  0  0  0  0  0
   29.2570    3.0590   32.5720 H   0  0  0  0  0  0  0  0  0  0  0  0
   27.6730    3.5330   33.2770 H   0  0  0  0  0  0  0  0  0  0  0  0
   22.4420    2.0130   31.5680 H   0  0  0  0  0  0  0  0  0  0  0  0
   22.9630   -0.0740   32.2560 H   0  0  0  0  0  0  0  0  0  0  0  0
   23.2060    1.0750   33.6800 H   0  0  0  0  0  0  0  0  0  0  0  0
   24.1600   -0.4890   33.5830 H   0  0  0  0  0  0  0  0  0  0  0  0
  1  2  1  0  0  0  0
  1 31  1  0  0  0  0
  1 32  1  0  0  0  0
  1 33  1  0  0  0  0
  2  3  1  0  0  0  0
  2 34  1  0  0  0  0
  2 35  1  0  0  0  0
  3  4  1  0  0  0  0
  4 10  2  0  0  0  0
  4  5  1  0  0  0  0
  5  6  2  0  0  0  0
  6  7  1  0  0  0  0
  6 13  1  0  0  0  0
  7  8  2  0  0  0  0
  7 36  1  0  0  0  0
  8  9  1  0  0  0  0
  8 10  1  0  0  0  0
  9 37  1  0  0  0  0
  9 38  1  0  0  0  0
 10 11  1  0  0  0  0
 11 12  3  0  0  0  0
 13 14  1  0  0  0  0
 13 39  1  0  0  0  0
 14 15  2  0  0  0  0
 14 16  1  0  0  0  0
 16 17  1  0  0  0  0
 16 40  1  0  0  0  0
 16 41  1  0  0  0  0
 17 28  2  0  0  0  0
 17 18  1  0  0  0  0
 18 19  1  0  0  0  0
 18 21  2  0  0  0  0
 19 20  1  0  0  0  0
 20 42  1  0  0  0  0
 20 43  1  0  0  0  0
 20 44  1  0  0  0  0
 21 22  1  0  0  0  0
 21 45  1  0  0  0  0
 22 23  1  0  0  0  0
 22 27  2  0  0  0  0
 23 24  2  0  0  0  0
 23 25  2  0  0  0  0
 23 26  1  0  0  0  0
 26 46  1  0  0  0  0
 26 47  1  0  0  0  0
 26 48  1  0  0  0  0
 27 28  1  0  0  0  0
 27 29  1  0  0  0  0
 28 49  1  0  0  0  0
 29 30  1  0  0  0  0
 30 50  1  0  0  0  0
 30 51  1  0  0  0  0
 30 52  1  0  0  0  0
M  END
$$$$
