1h1q
 OpenBabel02232411153D
Structure written by MMmdl.
 45 48  0  0  0  0  0  0  0  0999 V2000
    1.8800   28.8360    6.8360 C   0  0  0  0  0  0  0  0  0  0  0  0
   -1.5870   31.4670    7.9740 C   0  0  0  0  0  0  0  0  0  0  0  0
   -0.1770   25.9680    8.8900 C   0  0  0  0  0  0  0  0  0  0  0  0
   -0.9420   25.2850   10.0320 C   0  0  0  0  0  0  0  0  0  0  0  0
   -0.7610   23.7600    9.8480 C   0  0  0  0  0  0  0  0  0  0  0  0
   -1.3730   22.9760   11.0160 C   0  0  0  0  0  0  0  0  0  0  0  0
   -0.8180   23.4540   12.3670 C   0  0  0  0  0  0  0  0  0  0  0  0
   -1.0460   24.9620   12.5550 C   0  0  0  0  0  0  0  0  0  0  0  0
   -0.4240   25.7630   11.4020 C   0  0  0  0  0  0  0  0  0  0  0  0
    5.4960   25.6710    5.7660 C   0  0  0  0  0  0  0  0  0  0  0  0
    5.3500   24.9030    6.9270 C   0  0  0  0  0  0  0  0  0  0  0  0
    4.4550   25.3140    7.9180 C   0  0  0  0  0  0  0  0  0  0  0  0
    3.6970   26.4790    7.7630 C   0  0  0  0  0  0  0  0  0  0  0  0
    1.1500   27.8900    7.5510 N   0  0  0  0  0  0  0  0  0  0  0  0
   -0.0480   28.2300    8.0870 C   0  0  0  0  0  0  0  0  0  0  0  0
   -0.7510   27.3350    8.7990 O   0  0  0  0  0  0  0  0  0  0  0  0
   -0.5610   29.5440    7.9140 C   0  0  0  0  0  0  0  0  0  0  0  0
   -1.7020   30.2020    8.3850 N   0  0  0  0  0  0  0  0  0  0  0  0
   -0.3730   31.6900    7.2310 N   0  0  0  0  0  0  0  0  0  0  0  0
    0.2810   30.4630    7.1650 C   0  0  0  0  0  0  0  0  0  0  0  0
    1.4770   30.1400    6.5770 N   0  0  0  0  0  0  0  0  0  0  0  0
    3.1150   28.4510    6.3330 N   0  0  0  0  0  0  0  0  0  0  0  0
    3.8230   27.2290    6.5830 C   0  0  0  0  0  0  0  0  0  0  0  0
    4.7400   26.8270    5.5860 C   0  0  0  0  0  0  0  0  0  0  0  0
   -2.2820   32.2780    8.1680 H   0  0  0  0  0  0  0  0  0  0  0  0
    0.9100   26.0370    9.1170 H   0  0  0  0  0  0  0  0  0  0  0  0
   -0.3730   25.5000    7.9050 H   0  0  0  0  0  0  0  0  0  0  0  0
   -2.0290   25.5300    9.9670 H   0  0  0  0  0  0  0  0  0  0  0  0
   -1.2530   23.4430    8.9020 H   0  0  0  0  0  0  0  0  0  0  0  0
    0.3290   23.5210    9.7860 H   0  0  0  0  0  0  0  0  0  0  0  0
   -2.4750   23.1170   11.0140 H   0  0  0  0  0  0  0  0  0  0  0  0
   -1.1480   21.8910   10.8930 H   0  0  0  0  0  0  0  0  0  0  0  0
   -1.3180   22.8960   13.1910 H   0  0  0  0  0  0  0  0  0  0  0  0
    0.2760   23.2430   12.4040 H   0  0  0  0  0  0  0  0  0  0  0  0
   -2.1390   25.1680   12.6200 H   0  0  0  0  0  0  0  0  0  0  0  0
   -0.5730   25.2840   13.5120 H   0  0  0  0  0  0  0  0  0  0  0  0
    0.6860   25.6440   11.4490 H   0  0  0  0  0  0  0  0  0  0  0  0
   -0.6670   26.8420   11.5330 H   0  0  0  0  0  0  0  0  0  0  0  0
    6.2070   25.3650    4.9930 H   0  0  0  0  0  0  0  0  0  0  0  0
    5.9360   23.9930    7.0500 H   0  0  0  0  0  0  0  0  0  0  0  0
    4.3400   24.7210    8.8290 H   0  0  0  0  0  0  0  0  0  0  0  0
    3.0170   26.7800    8.5620 H   0  0  0  0  0  0  0  0  0  0  0  0
   -0.1060   32.5700    6.7650 H   0  0  0  0  0  0  0  0  0  0  0  0
    3.6170   29.1160    5.6970 H   0  0  0  0  0  0  0  0  0  0  0  0
    4.8670   27.4190    4.6780 H   0  0  0  0  0  0  0  0  0  0  0  0
  1 14  2  0  0  0  0
  1 21  1  0  0  0  0
  1 22  1  0  0  0  0
  2 18  2  0  0  0  0
  2 19  1  0  0  0  0
  2 25  1  0  0  0  0
  3  4  1  0  0  0  0
  3 16  1  0  0  0  0
  3 26  1  0  0  0  0
  3 27  1  0  0  0  0
  4  5  1  0  0  0  0
  4  9  1  0  0  0  0
  4 28  1  0  0  0  0
  5  6  1  0  0  0  0
  5 29  1  0  0  0  0
  5 30  1  0  0  0  0
  6  7  1  0  0  0  0
  6 31  1  0  0  0  0
  6 32  1  0  0  0  0
  7  8  1  0  0  0  0
  7 33  1  0  0  0  0
  7 34  1  0  0  0  0
  8  9  1  0  0  0  0
  8 35  1  0  0  0  0
  8 36  1  0  0  0  0
  9 37  1  0  0  0  0
  9 38  1  0  0  0  0
 10 11  2  0  0  0  0
 10 24  1  0  0  0  0
 10 39  1  0  0  0  0
 11 12  1  0  0  0  0
 11 40  1  0  0  0  0
 12 13  2  0  0  0  0
 12 41  1  0  0  0  0
 13 23  1  0  0  0  0
 13 42  1  0  0  0  0
 14 15  1  0  0  0  0
 15 16  1  0  0  0  0
 15 17  2  0  0  0  0
 17 18  1  0  0  0  0
 17 20  1  0  0  0  0
 19 20  1  0  0  0  0
 19 43  1  0  0  0  0
 20 21  2  0  0  0  0
 22 23  1  0  0  0  0
 22 44  1  0  0  0  0
 23 24  2  0  0  0  0
 24 45  1  0  0  0  0
M  END
$$$$
