p38a_2gg
 OpenBabel02232411163D
Structure written by MMmdl.
 48 51  0  0  0  0  0  0  0  0999 V2000
   38.2530   36.5240   17.1880 C   0  0  0  0  0  0  0  0  0  0  0  0
   34.5890   35.1570   21.3240 C   0  0  0  0  0  0  0  0  0  0  0  0
   37.4700   36.0890   18.2540 C   0  0  0  0  0  0  0  0  0  0  0  0
   34.0260   39.2680   23.8100 C   0  0  0  0  0  0  0  0  0  0  0  0
   34.6370   38.0390   21.4170 C   0  0  0  0  0  0  0  0  0  0  0  0
   35.0070   37.3660   20.2010 C   0  0  0  0  0  0  0  0  0  0  0  0
   37.6010   36.6760   15.9570 C   0  0  0  0  0  0  0  0  0  0  0  0
   36.2470   36.3900   15.7610 C   0  0  0  0  0  0  0  0  0  0  0  0
   35.4840   35.9450   16.8460 C   0  0  0  0  0  0  0  0  0  0  0  0
   34.3410   37.2810   22.5890 C   0  0  0  0  0  0  0  0  0  0  0  0
   34.5700   39.4520   21.5370 C   0  0  0  0  0  0  0  0  0  0  0  0
   35.0160   36.0140   20.1830 C   0  0  0  0  0  0  0  0  0  0  0  0
   36.1010   35.7870   18.0900 C   0  0  0  0  0  0  0  0  0  0  0  0
   34.0300   35.1230   23.7910 C   0  0  0  0  0  0  0  0  0  0  0  0
   38.0090   35.9550   19.4580 F   0  0  0  0  0  0  0  0  0  0  0  0
   35.3790   35.1810   19.1270 O   0  0  0  0  0  0  0  0  0  0  0  0
   34.2830   40.0790   22.6900 N   0  0  0  0  0  0  0  0  0  0  0  0
   34.4470   33.9550   21.2890 O   0  0  0  0  0  0  0  0  0  0  0  0
   34.3330   35.8780   22.5430 N   0  0  0  0  0  0  0  0  0  0  0  0
   34.0540   37.8890   23.7850 N   0  0  0  0  0  0  0  0  0  0  0  0
   33.6670   39.8980   24.9830 N   0  0  0  0  0  0  0  0  0  0  0  0
   39.3110   36.7720   17.3140 H   0  0  0  0  0  0  0  0  0  0  0  0
   35.2780   37.9760   19.3370 H   0  0  0  0  0  0  0  0  0  0  0  0
   35.7740   36.5230   14.7850 H   0  0  0  0  0  0  0  0  0  0  0  0
   34.4170   35.7380   16.7160 H   0  0  0  0  0  0  0  0  0  0  0  0
   34.7530   40.0880   20.6550 H   0  0  0  0  0  0  0  0  0  0  0  0
   34.7350   35.4370   24.6100 H   0  0  0  0  0  0  0  0  0  0  0  0
   32.9830   35.3490   24.1330 H   0  0  0  0  0  0  0  0  0  0  0  0
   34.1340   34.0220   23.6170 H   0  0  0  0  0  0  0  0  0  0  0  0
   33.7680   40.9250   25.0760 H   0  0  0  0  0  0  0  0  0  0  0  0
   38.3000   37.1540   14.9300 F   0  0  0  0  0  0  0  0  0  0  0  0
   32.0600   38.9930   28.3160 C   0  0  0  0  0  0  0  0  0  0  0  0
   32.3970   39.8380   27.0890 C   0  0  0  0  0  0  0  0  0  0  0  0
   33.5170   39.1550   26.2640 C   0  0  0  0  0  0  0  0  0  0  0  0
   34.8590   39.1450   27.0370 C   0  0  0  0  0  0  0  0  0  0  0  0
   34.7640   38.2500   28.2710 C   0  0  0  0  0  0  0  0  0  0  0  0
   31.6610   38.0000   27.9620 H   0  0  0  0  0  0  0  0  0  0  0  0
   31.2230   39.4700   28.8850 H   0  0  0  0  0  0  0  0  0  0  0  0
   32.7070   40.8700   27.3800 H   0  0  0  0  0  0  0  0  0  0  0  0
   31.4860   39.9230   26.4400 H   0  0  0  0  0  0  0  0  0  0  0  0
   33.2080   38.0940   26.0440 H   0  0  0  0  0  0  0  0  0  0  0  0
   35.6550   38.7380   26.3620 H   0  0  0  0  0  0  0  0  0  0  0  0
   35.1460   40.1890   27.3140 H   0  0  0  0  0  0  0  0  0  0  0  0
   34.6050   37.1880   27.9310 H   0  0  0  0  0  0  0  0  0  0  0  0
   35.7480   38.2690   28.8070 H   0  0  0  0  0  0  0  0  0  0  0  0
   33.4620   38.7350   29.3470 S   0  0  0  0  0  0  0  0  0  0  0  0
   33.8230   39.9770   30.0740 O   0  0  0  0  0  0  0  0  0  0  0  0
   33.1790   37.6440   30.3200 O   0  0  0  0  0  0  0  0  0  0  0  0
  1  3  2  0  0  0  0
  1  7  1  0  0  0  0
  1 22  1  0  0  0  0
  2 12  1  0  0  0  0
  2 18  2  0  0  0  0
  2 19  1  0  0  0  0
  3 13  1  0  0  0  0
  3 15  1  0  0  0  0
  4 17  2  0  0  0  0
  4 20  1  0  0  0  0
  4 21  1  0  0  0  0
  5  6  1  0  0  0  0
  5 10  1  0  0  0  0
  5 11  2  0  0  0  0
  6 12  2  0  0  0  0
  6 23  1  0  0  0  0
  7  8  2  0  0  0  0
  7 31  1  0  0  0  0
  8  9  1  0  0  0  0
  8 24  1  0  0  0  0
  9 13  2  0  0  0  0
  9 25  1  0  0  0  0
 10 19  1  0  0  0  0
 10 20  2  0  0  0  0
 11 17  1  0  0  0  0
 11 26  1  0  0  0  0
 12 16  1  0  0  0  0
 13 16  1  0  0  0  0
 14 19  1  0  0  0  0
 14 27  1  0  0  0  0
 14 28  1  0  0  0  0
 14 29  1  0  0  0  0
 21 30  1  0  0  0  0
 21 34  1  0  0  0  0
 32 33  1  0  0  0  0
 32 37  1  0  0  0  0
 32 38  1  0  0  0  0
 32 46  1  0  0  0  0
 33 34  1  0  0  0  0
 33 39  1  0  0  0  0
 33 40  1  0  0  0  0
 34 35  1  0  0  0  0
 34 41  1  0  0  0  0
 35 36  1  0  0  0  0
 35 42  1  0  0  0  0
 35 43  1  0  0  0  0
 36 44  1  0  0  0  0
 36 45  1  0  0  0  0
 36 46  1  0  0  0  0
 46 47  2  0  0  0  0
 46 48  2  0  0  0  0
M  END
$$$$
