p38a_3flw
 OpenBabel02232411163D
Structure written by MMmdl.
 49 51  0  0  0  0  0  0  0  0999 V2000
   38.2900   36.5350   17.1710 C   0  0  0  0  0  0  0  0  0  0  0  0
   37.6510   36.6800   15.9310 C   0  0  0  0  0  0  0  0  0  0  0  0
   34.0380   39.5580   27.5040 C   0  0  0  0  0  0  0  0  0  0  0  0
   33.4020   38.9240   28.7560 C   0  0  0  0  0  0  0  0  0  0  0  0
   31.8500   39.5690   26.1640 C   0  0  0  0  0  0  0  0  0  0  0  0
   33.9990   35.0280   23.7080 C   0  0  0  0  0  0  0  0  0  0  0  0
   38.0260   35.9580   19.4360 F   0  0  0  0  0  0  0  0  0  0  0  0
   37.5010   36.0830   18.2240 C   0  0  0  0  0  0  0  0  0  0  0  0
   38.3530   37.1820   14.9180 F   0  0  0  0  0  0  0  0  0  0  0  0
   36.3070   36.3680   15.7160 C   0  0  0  0  0  0  0  0  0  0  0  0
   35.5380   35.9050   16.7890 C   0  0  0  0  0  0  0  0  0  0  0  0
   36.1400   35.7560   18.0410 C   0  0  0  0  0  0  0  0  0  0  0  0
   35.4050   35.1440   19.0650 O   0  0  0  0  0  0  0  0  0  0  0  0
   35.0630   35.9660   20.1380 C   0  0  0  0  0  0  0  0  0  0  0  0
   35.1040   37.3170   20.1840 C   0  0  0  0  0  0  0  0  0  0  0  0
   34.7570   37.9760   21.4140 C   0  0  0  0  0  0  0  0  0  0  0  0
   34.7500   39.3880   21.5580 C   0  0  0  0  0  0  0  0  0  0  0  0
   34.4950   40.0010   22.7250 N   0  0  0  0  0  0  0  0  0  0  0  0
   34.5980   35.1060   21.2580 C   0  0  0  0  0  0  0  0  0  0  0  0
   34.4270   33.9070   21.2000 O   0  0  0  0  0  0  0  0  0  0  0  0
   34.3480   35.8080   22.4870 N   0  0  0  0  0  0  0  0  0  0  0  0
   34.4170   37.2080   22.5670 C   0  0  0  0  0  0  0  0  0  0  0  0
   34.1380   37.8040   23.7730 N   0  0  0  0  0  0  0  0  0  0  0  0
   34.2150   39.1810   23.8340 C   0  0  0  0  0  0  0  0  0  0  0  0
   34.0690   39.8050   25.0600 N   0  0  0  0  0  0  0  0  0  0  0  0
   33.3400   39.1520   26.1920 C   0  0  0  0  0  0  0  0  0  0  0  0
   30.9560   38.4740   25.5830 C   0  0  0  0  0  0  0  0  0  0  0  0
   30.8500   37.3780   26.5160 O   0  0  0  0  0  0  0  0  0  0  0  0
   32.9270   37.5890   28.5530 O   0  0  0  0  0  0  0  0  0  0  0  0
   39.3410   36.8020   17.3100 H   0  0  0  0  0  0  0  0  0  0  0  0
   34.0120   40.6720   27.6220 H   0  0  0  0  0  0  0  0  0  0  0  0
   35.1130   39.2530   27.4370 H   0  0  0  0  0  0  0  0  0  0  0  0
   34.1740   38.8080   29.5550 H   0  0  0  0  0  0  0  0  0  0  0  0
   32.5550   39.5510   29.1220 H   0  0  0  0  0  0  0  0  0  0  0  0
   31.5110   39.7940   27.2020 H   0  0  0  0  0  0  0  0  0  0  0  0
   31.7170   40.5090   25.5760 H   0  0  0  0  0  0  0  0  0  0  0  0
   32.9580   35.2870   24.0390 H   0  0  0  0  0  0  0  0  0  0  0  0
   34.0570   33.9290   23.4940 H   0  0  0  0  0  0  0  0  0  0  0  0
   34.7130   35.2810   24.5390 H   0  0  0  0  0  0  0  0  0  0  0  0
   35.8450   36.4970   14.7350 H   0  0  0  0  0  0  0  0  0  0  0  0
   34.4760   35.6800   16.6410 H   0  0  0  0  0  0  0  0  0  0  0  0
   35.4020   37.9340   19.3330 H   0  0  0  0  0  0  0  0  0  0  0  0
   34.9430   40.0300   20.6840 H   0  0  0  0  0  0  0  0  0  0  0  0
   34.0290   40.8460   25.0850 H   0  0  0  0  0  0  0  0  0  0  0  0
   33.4230   38.0320   26.0860 H   0  0  0  0  0  0  0  0  0  0  0  0
   29.9510   38.8840   25.3590 H   0  0  0  0  0  0  0  0  0  0  0  0
   31.4170   37.9880   24.6920 H   0  0  0  0  0  0  0  0  0  0  0  0
   30.0510   37.4980   27.1010 H   0  0  0  0  0  0  0  0  0  0  0  0
   32.2010   37.6010   27.8520 H   0  0  0  0  0  0  0  0  0  0  0  0
  1  2  2  0  0  0  0
  1  8  1  0  0  0  0
  1 30  1  0  0  0  0
  2  9  1  0  0  0  0
  2 10  1  0  0  0  0
  3  4  1  0  0  0  0
  3 26  1  0  0  0  0
  3 31  1  0  0  0  0
  3 32  1  0  0  0  0
  4 29  1  0  0  0  0
  4 33  1  0  0  0  0
  4 34  1  0  0  0  0
  5 26  1  0  0  0  0
  5 27  1  0  0  0  0
  5 35  1  0  0  0  0
  5 36  1  0  0  0  0
  6 21  1  0  0  0  0
  6 37  1  0  0  0  0
  6 38  1  0  0  0  0
  6 39  1  0  0  0  0
  7  8  1  0  0  0  0
  8 12  2  0  0  0  0
 10 11  2  0  0  0  0
 10 40  1  0  0  0  0
 11 12  1  0  0  0  0
 11 41  1  0  0  0  0
 12 13  1  0  0  0  0
 13 14  1  0  0  0  0
 14 15  2  0  0  0  0
 14 19  1  0  0  0  0
 15 16  1  0  0  0  0
 15 42  1  0  0  0  0
 16 17  2  0  0  0  0
 16 22  1  0  0  0  0
 17 18  1  0  0  0  0
 17 43  1  0  0  0  0
 18 24  2  0  0  0  0
 19 20  2  0  0  0  0
 19 21  1  0  0  0  0
 21 22  1  0  0  0  0
 22 23  2  0  0  0  0
 23 24  1  0  0  0  0
 24 25  1  0  0  0  0
 25 26  1  0  0  0  0
 25 44  1  0  0  0  0
 26 45  1  0  0  0  0
 27 28  1  0  0  0  0
 27 46  1  0  0  0  0
 27 47  1  0  0  0  0
 28 48  1  0  0  0  0
 29 49  1  0  0  0  0
M  END
$$$$
