CAT-17g
 OpenBabel02232411143D
Structure written by MMmdl.
 42 45  0  0  1  0  0  0  0  0999 V2000
   11.9720   -2.3970    0.8270 C   0  0  0  0  0  0  0  0  0  0  0  0
   13.3550   -2.1350    0.3770 N   0  0  0  0  0  0  0  0  0  0  0  0
   14.4120   -1.9940    1.2660 C   0  0  0  0  0  0  0  0  0  0  0  0
   14.3730   -2.1840    2.6090 N   0  0  0  0  0  0  0  0  0  0  0  0
   15.6000   -1.6650    0.5700 N   0  3  0  0  0  0  0  0  0  0  0  0
   15.4190   -2.0300   -0.8920 C   0  0  1  0  0  0  0  0  0  0  0  0
   15.8120   -0.9340   -1.8640 C   0  0  0  0  0  0  0  0  0  0  0  0
   16.5500   -1.2550   -3.0120 C   0  0  0  0  0  0  0  0  0  0  0  0
   16.7300   -0.3010   -4.0160 C   0  0  0  0  0  0  0  0  0  0  0  0
   16.2190    0.9880   -3.8650 C   0  0  0  0  0  0  0  0  0  0  0  0
   15.5350    1.3370   -2.6880 C   0  0  0  0  0  0  0  0  0  0  0  0
   15.0010    2.7000   -2.5080 C   0  0  0  0  0  0  0  0  0  0  0  0
   14.2490    3.3200   -3.5310 C   0  0  0  0  0  0  0  0  0  0  0  0
   13.6770    4.5410   -3.3840 N   0  0  0  0  0  0  0  0  0  0  0  0
   13.8390    5.2030   -2.2140 C   0  0  0  0  0  0  0  0  0  0  0  0
   14.6160    4.6490   -1.1750 C   0  0  0  0  0  0  0  0  0  0  0  0
   14.7860    5.3300   -0.0450 F   0  0  0  0  0  0  0  0  0  0  0  0
   15.2060    3.3930   -1.3050 C   0  0  0  0  0  0  0  0  0  0  0  0
   15.3280    0.3690   -1.6910 C   0  0  0  0  0  0  0  0  0  0  0  0
   16.1860   -3.3200   -1.0810 C   0  0  0  0  0  0  0  0  0  0  0  0
   15.5850   -4.6870   -0.7770 C   0  0  0  0  0  0  0  0  0  0  0  0
   15.8900   -4.2910   -2.2030 C   0  0  0  0  0  0  0  0  0  0  0  0
   13.8690   -2.2130   -1.0110 C   0  0  0  0  0  0  0  0  0  0  0  0
   13.1400   -2.3410   -1.9400 O   0  0  0  0  0  0  0  0  0  0  0  0
   11.9600   -3.2520    1.5580 H   0  0  0  0  0  0  0  0  0  0  0  0
   11.5540   -1.4790    1.3170 H   0  0  0  0  0  0  0  0  0  0  0  0
   11.3360   -2.6670   -0.0590 H   0  0  0  0  0  0  0  0  0  0  0  0
   13.5310   -1.9690    3.1910 H   0  0  0  0  0  0  0  0  0  0  0  0
   16.4760   -2.0750    1.0110 H   0  0  0  0  0  0  0  0  0  0  0  0
   16.9890   -2.2450   -3.1450 H   0  0  0  0  0  0  0  0  0  0  0  0
   17.2690   -0.5840   -4.9270 H   0  0  0  0  0  0  0  0  0  0  0  0
   16.3590    1.7170   -4.6690 H   0  0  0  0  0  0  0  0  0  0  0  0
   14.0880    2.8120   -4.4970 H   0  0  0  0  0  0  0  0  0  0  0  0
   13.3250    6.1730   -2.1110 H   0  0  0  0  0  0  0  0  0  0  0  0
   15.7970    2.9460   -0.4990 H   0  0  0  0  0  0  0  0  0  0  0  0
   14.7850    0.6210   -0.7810 H   0  0  0  0  0  0  0  0  0  0  0  0
   17.2480   -3.1760   -0.7990 H   0  0  0  0  0  0  0  0  0  0  0  0
   16.2430   -5.4110   -0.2800 H   0  0  0  0  0  0  0  0  0  0  0  0
   14.5450   -4.7690   -0.4460 H   0  0  0  0  0  0  0  0  0  0  0  0
   15.0590   -4.1030   -2.8930 H   0  0  0  0  0  0  0  0  0  0  0  0
   16.7710   -4.7330   -2.6840 H   0  0  0  0  0  0  0  0  0  0  0  0
   15.2810   -2.1130    3.1560 H   0  0  0  0  0  0  0  0  0  0  0  0
  1  2  1  0  0  0  0
  1 25  1  0  0  0  0
  1 26  1  0  0  0  0
  1 27  1  0  0  0  0
  2  3  1  0  0  0  0
  2 23  1  0  0  0  0
  3  4  1  0  0  0  0
  3  5  2  0  0  0  0
  4 28  1  0  0  0  0
  4 42  1  0  0  0  0
  5  6  1  0  0  0  0
  5 29  1  0  0  0  0
  6  7  1  6  0  0  0
  6 20  1  0  0  0  0
  6 23  1  0  0  0  0
  7  8  2  0  0  0  0
  7 19  1  0  0  0  0
  8  9  1  0  0  0  0
  8 30  1  0  0  0  0
  9 10  2  0  0  0  0
  9 31  1  0  0  0  0
 10 11  1  0  0  0  0
 10 32  1  0  0  0  0
 11 12  1  0  0  0  0
 11 19  2  0  0  0  0
 12 13  2  0  0  0  0
 12 18  1  0  0  0  0
 13 14  1  0  0  0  0
 13 33  1  0  0  0  0
 14 15  2  0  0  0  0
 15 16  1  0  0  0  0
 15 34  1  0  0  0  0
 16 18  2  0  0  0  0
 16 17  1  0  0  0  0
 18 35  1  0  0  0  0
 19 36  1  0  0  0  0
 20 21  1  0  0  0  0
 20 22  1  0  0  0  0
 20 37  1  0  0  0  0
 21 22  1  0  0  0  0
 21 38  1  0  0  0  0
 21 39  1  0  0  0  0
 22 40  1  0  0  0  0
 22 41  1  0  0  0  0
 23 24  2  0  0  0  0
M  CHG  1   5   1
M  END
$$$$
