p38a_3flw
 OpenBabel02232411163D
Structure written by MMmdl.
 49 51  0  0  0  0  0  0  0  0999 V2000
   38.2110   36.4610   17.2860 C   0  0  0  0  0  0  0  0  0  0  0  0
   37.5550   36.6080   16.0560 C   0  0  0  0  0  0  0  0  0  0  0  0
   32.0680   38.6300   26.1740 C   0  0  0  0  0  0  0  0  0  0  0  0
   30.9540   38.9710   25.1760 C   0  0  0  0  0  0  0  0  0  0  0  0
   34.3330   39.2050   27.1540 C   0  0  0  0  0  0  0  0  0  0  0  0
   33.8880   35.2710   23.9100 C   0  0  0  0  0  0  0  0  0  0  0  0
   37.9730   35.9100   19.5600 F   0  0  0  0  0  0  0  0  0  0  0  0
   37.4270   36.0440   18.3590 C   0  0  0  0  0  0  0  0  0  0  0  0
   38.2570   37.0690   15.0230 F   0  0  0  0  0  0  0  0  0  0  0  0
   36.1980   36.3340   15.8700 C   0  0  0  0  0  0  0  0  0  0  0  0
   35.4340   35.9110   16.9640 C   0  0  0  0  0  0  0  0  0  0  0  0
   36.0540   35.7570   18.2080 C   0  0  0  0  0  0  0  0  0  0  0  0
   35.3260   35.1820   19.2600 O   0  0  0  0  0  0  0  0  0  0  0  0
   35.0010   36.0410   20.3100 C   0  0  0  0  0  0  0  0  0  0  0  0
   35.0630   37.3920   20.3060 C   0  0  0  0  0  0  0  0  0  0  0  0
   34.7140   38.1020   21.5050 C   0  0  0  0  0  0  0  0  0  0  0  0
   34.7260   39.5200   21.5860 C   0  0  0  0  0  0  0  0  0  0  0  0
   34.4280   40.1870   22.7090 N   0  0  0  0  0  0  0  0  0  0  0  0
   34.5270   35.2320   21.4650 C   0  0  0  0  0  0  0  0  0  0  0  0
   34.3510   34.0350   21.4650 O   0  0  0  0  0  0  0  0  0  0  0  0
   34.2550   35.9950   22.6610 N   0  0  0  0  0  0  0  0  0  0  0  0
   34.3470   37.3920   22.6850 C   0  0  0  0  0  0  0  0  0  0  0  0
   34.0410   38.0460   23.8590 N   0  0  0  0  0  0  0  0  0  0  0  0
   34.0690   39.4230   23.8400 C   0  0  0  0  0  0  0  0  0  0  0  0
   33.6580   40.1640   24.9210 N   0  0  0  0  0  0  0  0  0  0  0  0
   33.1800   39.6900   26.2540 C   0  0  0  0  0  0  0  0  0  0  0  0
   35.4710   40.2190   27.3260 C   0  0  0  0  0  0  0  0  0  0  0  0
   35.0130   41.5270   27.7210 O   0  0  0  0  0  0  0  0  0  0  0  0
   30.9400   38.0400   24.0830 O   0  0  0  0  0  0  0  0  0  0  0  0
   39.2730   36.7000   17.4030 H   0  0  0  0  0  0  0  0  0  0  0  0
   31.6320   38.5230   27.2010 H   0  0  0  0  0  0  0  0  0  0  0  0
   32.5100   37.6340   25.9080 H   0  0  0  0  0  0  0  0  0  0  0  0
   29.9510   38.8380   25.6300 H   0  0  0  0  0  0  0  0  0  0  0  0
   31.0630   39.9970   24.7590 H   0  0  0  0  0  0  0  0  0  0  0  0
   33.8990   38.9600   28.1580 H   0  0  0  0  0  0  0  0  0  0  0  0
   34.7640   38.2570   26.7410 H   0  0  0  0  0  0  0  0  0  0  0  0
   34.4930   35.6590   24.7750 H   0  0  0  0  0  0  0  0  0  0  0  0
   32.8010   35.4320   24.1400 H   0  0  0  0  0  0  0  0  0  0  0  0
   34.0850   34.1730   23.7940 H   0  0  0  0  0  0  0  0  0  0  0  0
   35.7230   36.4610   14.8940 H   0  0  0  0  0  0  0  0  0  0  0  0
   34.3630   35.7180   16.8390 H   0  0  0  0  0  0  0  0  0  0  0  0
   35.3740   37.9730   19.4340 H   0  0  0  0  0  0  0  0  0  0  0  0
   34.9730   40.1140   20.6930 H   0  0  0  0  0  0  0  0  0  0  0  0
   33.8300   41.1880   24.9050 H   0  0  0  0  0  0  0  0  0  0  0  0
   32.7320   40.6200   26.7230 H   0  0  0  0  0  0  0  0  0  0  0  0
   36.1310   39.9190   28.1740 H   0  0  0  0  0  0  0  0  0  0  0  0
   36.0360   40.3310   26.3780 H   0  0  0  0  0  0  0  0  0  0  0  0
   34.4700   41.8990   26.9620 H   0  0  0  0  0  0  0  0  0  0  0  0
   31.8490   37.9440   23.7410 H   0  0  0  0  0  0  0  0  0  0  0  0
  1  2  2  0  0  0  0
  1  8  1  0  0  0  0
  1 30  1  0  0  0  0
  2  9  1  0  0  0  0
  2 10  1  0  0  0  0
  3  4  1  0  0  0  0
  3 26  1  0  0  0  0
  3 31  1  0  0  0  0
  3 32  1  0  0  0  0
  4 29  1  0  0  0  0
  4 33  1  0  0  0  0
  4 34  1  0  0  0  0
  5 26  1  0  0  0  0
  5 27  1  0  0  0  0
  5 35  1  0  0  0  0
  5 36  1  0  0  0  0
  6 21  1  0  0  0  0
  6 37  1  0  0  0  0
  6 38  1  0  0  0  0
  6 39  1  0  0  0  0
  7  8  1  0  0  0  0
  8 12  2  0  0  0  0
 10 11  2  0  0  0  0
 10 40  1  0  0  0  0
 11 12  1  0  0  0  0
 11 41  1  0  0  0  0
 12 13  1  0  0  0  0
 13 14  1  0  0  0  0
 14 15  2  0  0  0  0
 14 19  1  0  0  0  0
 15 16  1  0  0  0  0
 15 42  1  0  0  0  0
 16 17  2  0  0  0  0
 16 22  1  0  0  0  0
 17 18  1  0  0  0  0
 17 43  1  0  0  0  0
 18 24  2  0  0  0  0
 19 20  2  0  0  0  0
 19 21  1  0  0  0  0
 21 22  1  0  0  0  0
 22 23  2  0  0  0  0
 23 24  1  0  0  0  0
 24 25  1  0  0  0  0
 25 26  1  0  0  0  0
 25 44  1  0  0  0  0
 26 45  1  0  0  0  0
 27 28  1  0  0  0  0
 27 46  1  0  0  0  0
 27 47  1  0  0  0  0
 28 48  1  0  0  0  0
 29 49  1  0  0  0  0
M  END
$$$$
