p38a_2aa
 OpenBabel02232411163D
Structure written by MMmdl.
 43 45  0  0  0  0  0  0  0  0999 V2000
   38.2690   36.5230   17.1600 C   0  0  0  0  0  0  0  0  0  0  0  0
   34.5640   35.1060   21.2170 C   0  0  0  0  0  0  0  0  0  0  0  0
   37.4670   36.0640   18.2010 C   0  0  0  0  0  0  0  0  0  0  0  0
   34.1750   39.2100   23.7370 C   0  0  0  0  0  0  0  0  0  0  0  0
   33.6470   39.1800   26.2010 C   0  0  0  0  0  0  0  0  0  0  0  0
   34.6600   37.9870   21.3260 C   0  0  0  0  0  0  0  0  0  0  0  0
   35.0080   37.3130   20.1050 C   0  0  0  0  0  0  0  0  0  0  0  0
   37.6400   36.6920   15.9190 C   0  0  0  0  0  0  0  0  0  0  0  0
   36.2940   36.3980   15.6900 C   0  0  0  0  0  0  0  0  0  0  0  0
   35.5130   35.9240   16.7500 C   0  0  0  0  0  0  0  0  0  0  0  0
   34.3640   37.2270   22.4980 C   0  0  0  0  0  0  0  0  0  0  0  0
   34.6130   39.4010   21.4450 C   0  0  0  0  0  0  0  0  0  0  0  0
   35.0020   35.9610   20.0810 C   0  0  0  0  0  0  0  0  0  0  0  0
   36.1060   35.7510   18.0030 C   0  0  0  0  0  0  0  0  0  0  0  0
   33.9790   35.0660   23.6760 C   0  0  0  0  0  0  0  0  0  0  0  0
   37.9800   35.9210   19.4170 F   0  0  0  0  0  0  0  0  0  0  0  0
   35.3620   35.1340   19.0190 O   0  0  0  0  0  0  0  0  0  0  0  0
   34.3740   40.0260   22.6090 N   0  0  0  0  0  0  0  0  0  0  0  0
   34.4160   33.9050   21.1820 O   0  0  0  0  0  0  0  0  0  0  0  0
   34.3100   35.8270   22.4380 N   0  0  0  0  0  0  0  0  0  0  0  0
   34.1180   37.8370   23.7060 N   0  0  0  0  0  0  0  0  0  0  0  0
   34.0950   39.8640   24.9560 N   0  0  0  0  0  0  0  0  0  0  0  0
   39.3220   36.7780   17.3120 H   0  0  0  0  0  0  0  0  0  0  0  0
   34.3740   39.8550   27.3890 C   0  0  0  0  0  0  0  0  0  0  0  0
   35.2830   37.9220   19.2410 H   0  0  0  0  0  0  0  0  0  0  0  0
   35.8390   36.5490   14.7090 H   0  0  0  0  0  0  0  0  0  0  0  0
   34.4500   35.7110   16.5930 H   0  0  0  0  0  0  0  0  0  0  0  0
   34.7660   40.0340   20.5550 H   0  0  0  0  0  0  0  0  0  0  0  0
   34.6960   35.3390   24.4970 H   0  0  0  0  0  0  0  0  0  0  0  0
   32.9390   35.3230   24.0150 H   0  0  0  0  0  0  0  0  0  0  0  0
   34.0420   33.9640   23.4840 H   0  0  0  0  0  0  0  0  0  0  0  0
   33.9420   40.8900   24.9460 H   0  0  0  0  0  0  0  0  0  0  0  0
   38.3530   37.2000   14.9160 F   0  0  0  0  0  0  0  0  0  0  0  0
   32.0910   39.2170   26.3060 C   0  0  0  0  0  0  0  0  0  0  0  0
   31.6300   39.5960   27.6000 O   0  0  0  0  0  0  0  0  0  0  0  0
   32.0580   40.4750   27.8320 H   0  0  0  0  0  0  0  0  0  0  0  0
   31.6650   39.9360   25.5670 H   0  0  0  0  0  0  0  0  0  0  0  0
   31.6720   38.1920   26.1620 H   0  0  0  0  0  0  0  0  0  0  0  0
   33.7570   41.0990   27.7900 O   0  0  0  0  0  0  0  0  0  0  0  0
   34.2880   39.2230   28.3070 H   0  0  0  0  0  0  0  0  0  0  0  0
   35.4410   40.0610   27.1360 H   0  0  0  0  0  0  0  0  0  0  0  0
   33.6900   41.6930   26.9760 H   0  0  0  0  0  0  0  0  0  0  0  0
   33.9880   38.1020   26.1710 H   0  0  0  0  0  0  0  0  0  0  0  0
  1  3  2  0  0  0  0
  1  8  1  0  0  0  0
  1 23  1  0  0  0  0
  2 13  1  0  0  0  0
  2 19  2  0  0  0  0
  2 20  1  0  0  0  0
  3 14  1  0  0  0  0
  3 16  1  0  0  0  0
  4 18  2  0  0  0  0
  4 21  1  0  0  0  0
  4 22  1  0  0  0  0
  5 22  1  0  0  0  0
  5 24  1  0  0  0  0
  5 34  1  0  0  0  0
  5 43  1  0  0  0  0
  6  7  1  0  0  0  0
  6 11  1  0  0  0  0
  6 12  2  0  0  0  0
  7 13  2  0  0  0  0
  7 25  1  0  0  0  0
  8  9  2  0  0  0  0
  8 33  1  0  0  0  0
  9 10  1  0  0  0  0
  9 26  1  0  0  0  0
 10 14  2  0  0  0  0
 10 27  1  0  0  0  0
 11 20  1  0  0  0  0
 11 21  2  0  0  0  0
 12 18  1  0  0  0  0
 12 28  1  0  0  0  0
 13 17  1  0  0  0  0
 14 17  1  0  0  0  0
 15 20  1  0  0  0  0
 15 29  1  0  0  0  0
 15 30  1  0  0  0  0
 15 31  1  0  0  0  0
 22 32  1  0  0  0  0
 24 39  1  0  0  0  0
 24 40  1  0  0  0  0
 24 41  1  0  0  0  0
 34 35  1  0  0  0  0
 34 37  1  0  0  0  0
 34 38  1  0  0  0  0
 35 36  1  0  0  0  0
 39 42  1  0  0  0  0
M  END
$$$$
