p38a_3fmh
 OpenBabel02232411163D
Structure written by MMmdl.
 46 49  0  0  1  0  0  0  0  0999 V2000
   38.3610   37.2390   14.8800 F   0  0  0  0  0  0  0  0  0  0  0  0
   37.6670   36.7150   15.8870 C   0  0  0  0  0  0  0  0  0  0  0  0
   36.3250   36.3940   15.6700 C   0  0  0  0  0  0  0  0  0  0  0  0
   35.5640   35.8980   16.7340 C   0  0  0  0  0  0  0  0  0  0  0  0
   38.3100   36.5560   17.1230 C   0  0  0  0  0  0  0  0  0  0  0  0
   37.5270   36.0780   18.1700 C   0  0  0  0  0  0  0  0  0  0  0  0
   38.0510   35.9480   19.3820 F   0  0  0  0  0  0  0  0  0  0  0  0
   36.1730   35.7310   17.9800 C   0  0  0  0  0  0  0  0  0  0  0  0
   35.4550   35.0940   19.0030 O   0  0  0  0  0  0  0  0  0  0  0  0
   35.0420   35.9200   20.0450 C   0  0  0  0  0  0  0  0  0  0  0  0
   34.5070   35.0630   21.1390 C   0  0  0  0  0  0  0  0  0  0  0  0
   34.3780   33.8600   21.0920 O   0  0  0  0  0  0  0  0  0  0  0  0
   34.1330   35.7810   22.3280 N   0  0  0  0  0  0  0  0  0  0  0  0
   33.6270   35.0200   23.5060 C   0  0  0  0  0  0  0  0  0  0  0  0
   34.2240   37.1790   22.4110 C   0  0  0  0  0  0  0  0  0  0  0  0
   33.8750   37.7830   23.5950 N   0  0  0  0  0  0  0  0  0  0  0  0
   35.0860   37.2710   20.0870 C   0  0  0  0  0  0  0  0  0  0  0  0
   34.6670   37.9400   21.2890 C   0  0  0  0  0  0  0  0  0  0  0  0
   34.6870   39.3510   21.4350 C   0  0  0  0  0  0  0  0  0  0  0  0
   34.3680   39.9690   22.5850 N   0  0  0  0  0  0  0  0  0  0  0  0
   33.9930   39.1530   23.6640 C   0  0  0  0  0  0  0  0  0  0  0  0
   33.8040   39.7760   24.8950 N   0  0  0  0  0  0  0  0  0  0  0  0
   32.9520   39.1230   25.9380 C   0  0  2  0  0  0  0  0  0  0  0  0
   31.4710   39.3910   25.6690 C   0  0  0  0  0  0  0  0  0  0  0  0
   33.4270   39.7270   27.2970 C   0  0  0  0  0  0  0  0  0  0  0  0
   32.8390   38.9910   28.4360 N   0  0  0  0  0  0  0  0  0  0  0  0
   31.7920   39.4660   29.1660 N   0  0  0  0  0  0  0  0  0  0  0  0
   31.5330   38.4790   30.0690 C   0  0  0  0  0  0  0  0  0  0  0  0
   32.4480   37.4120   29.8590 N   0  0  0  0  0  0  0  0  0  0  0  0
   33.2170   37.7440   28.8710 N   0  0  0  0  0  0  0  0  0  0  0  0
   35.8580   36.5420   14.6940 H   0  0  0  0  0  0  0  0  0  0  0  0
   34.5050   35.6640   16.5840 H   0  0  0  0  0  0  0  0  0  0  0  0
   39.3580   36.8330   17.2680 H   0  0  0  0  0  0  0  0  0  0  0  0
   34.2390   35.2680   24.4160 H   0  0  0  0  0  0  0  0  0  0  0  0
   32.5580   35.3030   23.7090 H   0  0  0  0  0  0  0  0  0  0  0  0
   33.6860   33.9180   23.3110 H   0  0  0  0  0  0  0  0  0  0  0  0
   35.4380   37.8820   19.2540 H   0  0  0  0  0  0  0  0  0  0  0  0
   34.9600   39.9890   20.5800 H   0  0  0  0  0  0  0  0  0  0  0  0
   33.7360   40.8160   24.9010 H   0  0  0  0  0  0  0  0  0  0  0  0
   33.1550   38.0140   25.9400 H   0  0  0  0  0  0  0  0  0  0  0  0
   30.8390   38.9830   26.4880 H   0  0  0  0  0  0  0  0  0  0  0  0
   31.2810   40.4870   25.5870 H   0  0  0  0  0  0  0  0  0  0  0  0
   31.1570   38.9020   24.7180 H   0  0  0  0  0  0  0  0  0  0  0  0
   34.5530   39.6580   27.3630 H   0  0  0  0  0  0  0  0  0  0  0  0
   33.1320   40.8130   27.3640 H   0  0  0  0  0  0  0  0  0  0  0  0
   30.7550   38.4950   30.8310 H   0  0  0  0  0  0  0  0  0  0  0  0
  1  2  1  0  0  0  0
  2  3  2  0  0  0  0
  2  5  1  0  0  0  0
  3  4  1  0  0  0  0
  3 31  1  0  0  0  0
  4  8  2  0  0  0  0
  4 32  1  0  0  0  0
  5  6  2  0  0  0  0
  5 33  1  0  0  0  0
  6  7  1  0  0  0  0
  6  8  1  0  0  0  0
  8  9  1  0  0  0  0
  9 10  1  0  0  0  0
 10 11  1  0  0  0  0
 10 17  2  0  0  0  0
 11 12  2  0  0  0  0
 11 13  1  0  0  0  0
 13 14  1  0  0  0  0
 13 15  1  0  0  0  0
 14 34  1  0  0  0  0
 14 35  1  0  0  0  0
 14 36  1  0  0  0  0
 15 16  2  0  0  0  0
 15 18  1  0  0  0  0
 16 21  1  0  0  0  0
 17 18  1  0  0  0  0
 17 37  1  0  0  0  0
 18 19  2  0  0  0  0
 19 20  1  0  0  0  0
 19 38  1  0  0  0  0
 20 21  2  0  0  0  0
 21 22  1  0  0  0  0
 22 23  1  0  0  0  0
 22 39  1  0  0  0  0
 23 24  1  0  0  0  0
 23 25  1  0  0  0  0
 23 40  1  6  0  0  0
 24 41  1  0  0  0  0
 24 42  1  0  0  0  0
 24 43  1  0  0  0  0
 25 26  1  0  0  0  0
 25 44  1  0  0  0  0
 25 45  1  0  0  0  0
 26 27  1  0  0  0  0
 26 30  1  0  0  0  0
 27 28  2  0  0  0  0
 28 29  1  0  0  0  0
 28 46  1  0  0  0  0
 29 30  2  0  0  0  0
M  END
$$$$
