p38a_2m
 OpenBabel02232411163D
Structure written by MMmdl.
 50 54  0  0  0  0  0  0  0  0999 V2000
   36.3600   36.0290   15.8480 C   0  0  0  0  0  0  0  0  0  0  0  0
   34.4010   35.0450   21.2750 C   0  0  0  0  0  0  0  0  0  0  0  0
   35.7270   35.5560   16.9940 C   0  0  0  0  0  0  0  0  0  0  0  0
   33.7790   39.1660   23.7410 C   0  0  0  0  0  0  0  0  0  0  0  0
   34.6870   37.8980   21.4640 C   0  0  0  0  0  0  0  0  0  0  0  0
   35.2520   37.2140   20.3340 C   0  0  0  0  0  0  0  0  0  0  0  0
   37.6530   36.5410   16.0170 C   0  0  0  0  0  0  0  0  0  0  0  0
   38.3200   36.5600   17.2440 C   0  0  0  0  0  0  0  0  0  0  0  0
   37.6490   36.1100   18.3870 C   0  0  0  0  0  0  0  0  0  0  0  0
   34.0490   37.1710   22.5100 C   0  0  0  0  0  0  0  0  0  0  0  0
   34.7570   39.3100   21.6110 C   0  0  0  0  0  0  0  0  0  0  0  0
   35.1440   35.8680   20.2790 C   0  0  0  0  0  0  0  0  0  0  0  0
   36.3520   35.6090   18.2570 C   0  0  0  0  0  0  0  0  0  0  0  0
   34.5140   35.0250   16.9220 F   0  0  0  0  0  0  0  0  0  0  0  0
   35.6560   35.0040   19.3130 O   0  0  0  0  0  0  0  0  0  0  0  0
   34.3280   39.9540   22.7040 N   0  0  0  0  0  0  0  0  0  0  0  0
   34.2360   33.8510   21.1700 O   0  0  0  0  0  0  0  0  0  0  0  0
   33.8680   35.7730   22.4010 N   0  0  0  0  0  0  0  0  0  0  0  0
   33.6060   37.8010   23.6490 N   0  0  0  0  0  0  0  0  0  0  0  0
   33.3840   39.8570   24.8610 N   0  0  0  0  0  0  0  0  0  0  0  0
   35.8690   36.0230   14.8720 H   0  0  0  0  0  0  0  0  0  0  0  0
   35.7610   37.8080   19.5710 H   0  0  0  0  0  0  0  0  0  0  0  0
   39.3400   36.9470   17.3220 H   0  0  0  0  0  0  0  0  0  0  0  0
   38.1370   36.1750   19.3630 H   0  0  0  0  0  0  0  0  0  0  0  0
   35.1810   39.9220   20.7990 H   0  0  0  0  0  0  0  0  0  0  0  0
   33.5920   40.8750   24.9100 H   0  0  0  0  0  0  0  0  0  0  0  0
   38.2590   37.0660   14.9540 F   0  0  0  0  0  0  0  0  0  0  0  0
   33.4140   37.8510   28.1540 C   0  0  0  0  0  0  0  0  0  0  0  0
   33.9520   38.3570   26.8100 C   0  0  0  0  0  0  0  0  0  0  0  0
   32.9130   39.2930   26.1610 C   0  0  0  0  0  0  0  0  0  0  0  0
   31.5510   38.5830   26.0350 C   0  0  0  0  0  0  0  0  0  0  0  0
   31.1210   38.0620   27.4130 C   0  0  0  0  0  0  0  0  0  0  0  0
   32.1270   37.2110   28.0080 O   0  0  0  0  0  0  0  0  0  0  0  0
   33.3240   38.6850   28.8890 H   0  0  0  0  0  0  0  0  0  0  0  0
   34.0460   37.0240   28.5550 H   0  0  0  0  0  0  0  0  0  0  0  0
   34.1590   37.4860   26.1410 H   0  0  0  0  0  0  0  0  0  0  0  0
   34.9090   38.9080   26.9770 H   0  0  0  0  0  0  0  0  0  0  0  0
   32.7850   40.2040   26.8220 H   0  0  0  0  0  0  0  0  0  0  0  0
   30.7850   39.2960   25.6480 H   0  0  0  0  0  0  0  0  0  0  0  0
   31.6260   37.7290   25.3210 H   0  0  0  0  0  0  0  0  0  0  0  0
   30.9050   38.9010   28.1120 H   0  0  0  0  0  0  0  0  0  0  0  0
   30.2530   37.3690   27.3300 H   0  0  0  0  0  0  0  0  0  0  0  0
   33.0770   35.0910   23.4470 C   0  0  0  0  0  0  0  0  0  0  0  0
   33.3440   33.6500   23.8580 C   0  0  0  0  0  0  0  0  0  0  0  0
   32.0760   33.9980   23.0960 C   0  0  0  0  0  0  0  0  0  0  0  0
   32.7860   35.7900   24.2630 H   0  0  0  0  0  0  0  0  0  0  0  0
   34.1240   33.0570   23.3670 H   0  0  0  0  0  0  0  0  0  0  0  0
   33.2660   33.4120   24.9310 H   0  0  0  0  0  0  0  0  0  0  0  0
   31.9580   33.6540   22.0610 H   0  0  0  0  0  0  0  0  0  0  0  0
   31.1160   34.0070   23.6360 H   0  0  0  0  0  0  0  0  0  0  0  0
  1  3  2  0  0  0  0
  1  7  1  0  0  0  0
  1 21  1  0  0  0  0
  2 12  1  0  0  0  0
  2 17  2  0  0  0  0
  2 18  1  0  0  0  0
  3 13  1  0  0  0  0
  3 14  1  0  0  0  0
  4 16  2  0  0  0  0
  4 19  1  0  0  0  0
  4 20  1  0  0  0  0
  5  6  1  0  0  0  0
  5 10  1  0  0  0  0
  5 11  2  0  0  0  0
  6 12  2  0  0  0  0
  6 22  1  0  0  0  0
  7  8  2  0  0  0  0
  7 27  1  0  0  0  0
  8  9  1  0  0  0  0
  8 23  1  0  0  0  0
  9 13  2  0  0  0  0
  9 24  1  0  0  0  0
 10 18  1  0  0  0  0
 10 19  2  0  0  0  0
 11 16  1  0  0  0  0
 11 25  1  0  0  0  0
 12 15  1  0  0  0  0
 13 15  1  0  0  0  0
 18 43  1  0  0  0  0
 20 26  1  0  0  0  0
 20 30  1  0  0  0  0
 28 29  1  0  0  0  0
 28 33  1  0  0  0  0
 28 34  1  0  0  0  0
 28 35  1  0  0  0  0
 29 30  1  0  0  0  0
 29 36  1  0  0  0  0
 29 37  1  0  0  0  0
 30 31  1  0  0  0  0
 30 38  1  0  0  0  0
 31 32  1  0  0  0  0
 31 39  1  0  0  0  0
 31 40  1  0  0  0  0
 32 33  1  0  0  0  0
 32 41  1  0  0  0  0
 32 42  1  0  0  0  0
 43 44  1  0  0  0  0
 43 45  1  0  0  0  0
 43 46  1  0  0  0  0
 44 45  1  0  0  0  0
 44 47  1  0  0  0  0
 44 48  1  0  0  0  0
 45 49  1  0  0  0  0
 45 50  1  0  0  0  0
M  END
$$$$
