20
                    3D
 Schrodinger Suite 2022-3.
 49 52  0  0  1  0  0  0  0  0999 V2000
    1.7500   29.0440    6.7570 C   0  0  0  0  0  0  0  0  0  0  0  0
   -1.7230   31.6600    7.9090 C   0  0  0  0  0  0  0  0  0  0  0  0
   -0.4480   26.1220    8.6540 C   0  0  0  0  0  0  0  0  0  0  0  0
   -1.1540   25.4750    9.8520 C   0  0  0  0  0  0  0  0  0  0  0  0
   -1.0610   23.9430    9.6710 C   0  0  0  0  0  0  0  0  0  0  0  0
   -1.6690   23.2110   10.8750 C   0  0  0  0  0  0  0  0  0  0  0  0
   -1.0250   23.6550   12.1980 C   0  0  0  0  0  0  0  0  0  0  0  0
   -1.1270   25.1780   12.3790 C   0  0  0  0  0  0  0  0  0  0  0  0
   -0.5150   25.9230   11.1820 C   0  0  0  0  0  0  0  0  0  0  0  0
    4.0150   25.3060    7.6190 C   0  0  0  0  0  0  0  0  0  0  0  0
    4.9720   24.9390    6.6690 C   0  0  0  0  0  0  0  0  0  0  0  0
    5.2690   25.8120    5.6160 C   0  0  0  0  0  0  0  0  0  0  0  0
    4.5960   27.0250    5.4870 C   0  0  0  0  0  0  0  0  0  0  0  0
    0.9850   28.0740    7.4060 N   0  0  0  0  0  0  0  0  0  0  0  0
   -0.2060   28.4160    7.9570 C   0  0  0  0  0  0  0  0  0  0  0  0
   -0.9460   27.5170    8.6220 O   0  0  0  0  0  0  0  0  0  0  0  0
   -0.6860   29.7460    7.8460 C   0  0  0  0  0  0  0  0  0  0  0  0
   -1.8410   30.3900    8.3030 N   0  0  0  0  0  0  0  0  0  0  0  0
   -0.4840   31.9030    7.2150 N   0  0  0  0  0  0  0  0  0  0  0  0
    0.1720   30.6780    7.1370 C   0  0  0  0  0  0  0  0  0  0  0  0
    1.3750   30.3630    6.5560 N   0  0  0  0  0  0  0  0  0  0  0  0
    3.0050   28.6720    6.2870 N   0  0  0  0  0  0  0  0  0  0  0  0
    3.6420   27.3990    6.4600 C   0  0  0  0  0  0  0  0  0  0  0  0
    3.3960   26.5630    7.5560 C   0  0  0  0  0  0  0  0  0  0  0  0
   -2.4310   32.4630    8.0870 H   0  0  0  0  0  0  0  0  0  0  0  0
   -0.7690   25.6860    7.6870 H   0  0  0  0  0  0  0  0  0  0  0  0
    0.6560   26.1170    8.7820 H   0  0  0  0  0  0  0  0  0  0  0  0
   -2.2310   25.7770    9.8570 H   0  0  0  0  0  0  0  0  0  0  0  0
    0.0090   23.6420    9.5700 H   0  0  0  0  0  0  0  0  0  0  0  0
   -1.6120   23.6470    8.7500 H   0  0  0  0  0  0  0  0  0  0  0  0
   -1.5320   22.1120   10.7540 H   0  0  0  0  0  0  0  0  0  0  0  0
   -2.7570   23.4350   10.9190 H   0  0  0  0  0  0  0  0  0  0  0  0
    0.0490   23.3550   12.2090 H   0  0  0  0  0  0  0  0  0  0  0  0
   -1.5420   23.1480   13.0450 H   0  0  0  0  0  0  0  0  0  0  0  0
   -2.1970   25.4650   12.4980 H   0  0  0  0  0  0  0  0  0  0  0  0
   -0.5820   25.4710   13.3080 H   0  0  0  0  0  0  0  0  0  0  0  0
   -0.6680   27.0180   11.3160 H   0  0  0  0  0  0  0  0  0  0  0  0
    0.5820   25.7170   11.1640 H   0  0  0  0  0  0  0  0  0  0  0  0
    5.4800   23.9760    6.7350 H   0  0  0  0  0  0  0  0  0  0  0  0
    6.0250   25.5370    4.8750 H   0  0  0  0  0  0  0  0  0  0  0  0
    4.8110   27.6700    4.6350 H   0  0  0  0  0  0  0  0  0  0  0  0
   -0.2340   32.7710    6.7210 H   0  0  0  0  0  0  0  0  0  0  0  0
    3.4980   29.3170    5.6250 H   0  0  0  0  0  0  0  0  0  0  0  0
    2.7130   26.8630    8.3530 H   0  0  0  0  0  0  0  0  0  0  0  0
    3.5400   24.3540    8.6910 C   0  0  0  0  0  0  0  0  0  0  0  0
    2.5360   23.9460    8.4150 H   0  0  0  0  0  0  0  0  0  0  0  0
    4.3710   23.1820    8.7680 O   0  0  0  0  0  0  0  0  0  0  0  0
    3.5070   24.8500    9.6890 H   0  0  0  0  0  0  0  0  0  0  0  0
    5.0340   23.3630    9.5540 H   0  0  0  0  0  0  0  0  0  0  0  0
  1 14  1  0  0  0  0
  1 21  2  0  0  0  0
  1 22  1  0  0  0  0
  2 18  2  0  0  0  0
  2 19  1  0  0  0  0
  2 25  1  0  0  0  0
  3  4  1  0  0  0  0
  3 16  1  0  0  0  0
  3 26  1  0  0  0  0
  3 27  1  0  0  0  0
  4  5  1  0  0  0  0
  4  9  1  0  0  0  0
  4 28  1  0  0  0  0
  5  6  1  0  0  0  0
  5 29  1  0  0  0  0
  5 30  1  0  0  0  0
  6  7  1  0  0  0  0
  6 31  1  0  0  0  0
  6 32  1  0  0  0  0
  7  8  1  0  0  0  0
  7 33  1  0  0  0  0
  7 34  1  0  0  0  0
  8  9  1  0  0  0  0
  8 35  1  0  0  0  0
  8 36  1  0  0  0  0
  9 37  1  0  0  0  0
  9 38  1  0  0  0  0
 10 11  1  0  0  0  0
 10 24  2  0  0  0  0
 10 45  1  0  0  0  0
 11 12  2  0  0  0  0
 11 39  1  0  0  0  0
 12 13  1  0  0  0  0
 12 40  1  0  0  0  0
 13 23  2  0  0  0  0
 13 41  1  0  0  0  0
 14 15  2  0  0  0  0
 15 16  1  0  0  0  0
 15 17  1  0  0  0  0
 17 18  1  0  0  0  0
 17 20  2  0  0  0  0
 19 20  1  0  0  0  0
 19 42  1  0  0  0  0
 20 21  1  0  0  0  0
 22 23  1  0  0  0  0
 22 43  1  0  0  0  0
 23 24  1  0  0  0  0
 24 44  1  0  0  0  0
 45 46  1  0  0  0  0
 45 47  1  0  0  0  0
 45 48  1  0  0  0  0
 47 49  1  0  0  0  0
M  END
$$$$
