p38a_2aa
 OpenBabel02232411163D
Structure written by MMmdl.
 43 45  0  0  0  0  0  0  0  0999 V2000
   36.3390   36.0200   15.8160 C   0  0  0  0  0  0  0  0  0  0  0  0
   34.5900   35.0600   21.3910 C   0  0  0  0  0  0  0  0  0  0  0  0
   35.6850   35.5490   16.9500 C   0  0  0  0  0  0  0  0  0  0  0  0
   34.2420   39.2080   23.8430 C   0  0  0  0  0  0  0  0  0  0  0  0
   33.4830   39.2930   26.2430 C   0  0  0  0  0  0  0  0  0  0  0  0
   34.8320   37.9230   21.4870 C   0  0  0  0  0  0  0  0  0  0  0  0
   35.2460   37.2220   20.3010 C   0  0  0  0  0  0  0  0  0  0  0  0
   37.6330   36.5230   16.0040 C   0  0  0  0  0  0  0  0  0  0  0  0
   38.2820   36.5350   17.2410 C   0  0  0  0  0  0  0  0  0  0  0  0
   37.5900   36.0890   18.3730 C   0  0  0  0  0  0  0  0  0  0  0  0
   34.4330   37.1970   22.6480 C   0  0  0  0  0  0  0  0  0  0  0  0
   34.8190   39.3390   21.5760 C   0  0  0  0  0  0  0  0  0  0  0  0
   35.1680   35.8720   20.2840 C   0  0  0  0  0  0  0  0  0  0  0  0
   36.2910   35.5970   18.2220 C   0  0  0  0  0  0  0  0  0  0  0  0
   33.9160   35.0570   23.8240 C   0  0  0  0  0  0  0  0  0  0  0  0
   34.4690   35.0270   16.8590 F   0  0  0  0  0  0  0  0  0  0  0  0
   35.5600   35.0080   19.2640 O   0  0  0  0  0  0  0  0  0  0  0  0
   34.5280   39.9920   22.7120 N   0  0  0  0  0  0  0  0  0  0  0  0
   34.3400   33.8760   21.3380 O   0  0  0  0  0  0  0  0  0  0  0  0
   34.3220   35.7990   22.5970 N   0  0  0  0  0  0  0  0  0  0  0  0
   34.1310   37.8360   23.8300 N   0  0  0  0  0  0  0  0  0  0  0  0
   34.1280   39.8930   25.0440 N   0  0  0  0  0  0  0  0  0  0  0  0
   35.8610   36.0230   14.8330 H   0  0  0  0  0  0  0  0  0  0  0  0
   34.1840   39.9230   27.4750 C   0  0  0  0  0  0  0  0  0  0  0  0
   35.6260   37.8110   19.4630 H   0  0  0  0  0  0  0  0  0  0  0  0
   39.3020   36.9170   17.3360 H   0  0  0  0  0  0  0  0  0  0  0  0
   38.0620   36.1530   19.3560 H   0  0  0  0  0  0  0  0  0  0  0  0
   35.0400   39.9480   20.6850 H   0  0  0  0  0  0  0  0  0  0  0  0
   34.6060   35.3180   24.6730 H   0  0  0  0  0  0  0  0  0  0  0  0
   32.8680   35.3390   24.1150 H   0  0  0  0  0  0  0  0  0  0  0  0
   33.9650   33.9520   23.6430 H   0  0  0  0  0  0  0  0  0  0  0  0
   34.0360   40.9310   25.0060 H   0  0  0  0  0  0  0  0  0  0  0  0
   38.2580   37.0470   14.9520 F   0  0  0  0  0  0  0  0  0  0  0  0
   31.9630   39.6170   26.2300 C   0  0  0  0  0  0  0  0  0  0  0  0
   31.2790   38.9100   27.2640 O   0  0  0  0  0  0  0  0  0  0  0  0
   31.8070   39.0130   28.1060 H   0  0  0  0  0  0  0  0  0  0  0  0
   31.8070   40.7120   26.3720 H   0  0  0  0  0  0  0  0  0  0  0  0
   31.4790   39.2550   25.2950 H   0  0  0  0  0  0  0  0  0  0  0  0
   33.6870   39.1740   28.6130 O   0  0  0  0  0  0  0  0  0  0  0  0
   35.2900   39.7900   27.4200 H   0  0  0  0  0  0  0  0  0  0  0  0
   33.9140   40.9980   27.5990 H   0  0  0  0  0  0  0  0  0  0  0  0
   34.0100   39.6160   29.4420 H   0  0  0  0  0  0  0  0  0  0  0  0
   33.6420   38.1780   26.2650 H   0  0  0  0  0  0  0  0  0  0  0  0
  1  3  2  0  0  0  0
  1  8  1  0  0  0  0
  1 23  1  0  0  0  0
  2 13  1  0  0  0  0
  2 19  2  0  0  0  0
  2 20  1  0  0  0  0
  3 14  1  0  0  0  0
  3 16  1  0  0  0  0
  4 18  2  0  0  0  0
  4 21  1  0  0  0  0
  4 22  1  0  0  0  0
  5 22  1  0  0  0  0
  5 24  1  0  0  0  0
  5 34  1  0  0  0  0
  5 43  1  0  0  0  0
  6  7  1  0  0  0  0
  6 11  1  0  0  0  0
  6 12  2  0  0  0  0
  7 13  2  0  0  0  0
  7 25  1  0  0  0  0
  8  9  2  0  0  0  0
  8 33  1  0  0  0  0
  9 10  1  0  0  0  0
  9 26  1  0  0  0  0
 10 14  2  0  0  0  0
 10 27  1  0  0  0  0
 11 20  1  0  0  0  0
 11 21  2  0  0  0  0
 12 18  1  0  0  0  0
 12 28  1  0  0  0  0
 13 17  1  0  0  0  0
 14 17  1  0  0  0  0
 15 20  1  0  0  0  0
 15 29  1  0  0  0  0
 15 30  1  0  0  0  0
 15 31  1  0  0  0  0
 22 32  1  0  0  0  0
 24 39  1  0  0  0  0
 24 40  1  0  0  0  0
 24 41  1  0  0  0  0
 34 35  1  0  0  0  0
 34 37  1  0  0  0  0
 34 38  1  0  0  0  0
 35 36  1  0  0  0  0
 39 42  1  0  0  0  0
M  END
$$$$
