66
                    3D
 Schrodinger Suite 2022-3.
 43 46  0  0  1  0  0  0  0  0999 V2000
    3.2080  -47.9200    7.2110 O   0  0  0  0  0  0  0  0  0  0  0  0
    2.8770  -48.9210    6.5650 C   0  0  0  0  0  0  0  0  0  0  0  0
    3.6210  -49.7210    5.9700 O   0  5  0  0  0  0  0  0  0  0  0  0
    1.3930  -49.3200    6.5340 C   0  0  0  0  0  0  0  0  0  0  0  0
    1.0930  -50.9490    7.1020 S   0  0  0  0  0  0  0  0  0  0  0  0
   -0.6160  -50.8430    6.7960 C   0  0  0  0  0  0  0  0  0  0  0  0
   -1.6190  -51.7900    6.9880 C   0  0  0  0  0  0  0  0  0  0  0  0
   -2.9280  -51.5300    6.5970 C   0  0  0  0  0  0  0  0  0  0  0  0
   -3.2370  -50.2750    6.0420 C   0  0  0  0  0  0  0  0  0  0  0  0
   -2.2590  -49.2990    5.8730 C   0  0  0  0  0  0  0  0  0  0  0  0
   -0.9280  -49.5690    6.2420 C   0  0  0  0  0  0  0  0  0  0  0  0
    0.2510  -48.7030    6.1340 C   0  0  0  0  0  0  0  0  0  0  0  0
    0.1360  -47.2950    5.6400 C   0  0  0  0  0  0  0  0  0  0  0  0
    0.1050  -46.2640    6.7820 C   0  0  0  0  0  0  0  0  0  0  0  0
   -1.0710  -46.4170    7.7400 C   0  0  0  0  0  0  0  0  0  0  0  0
   -2.1960  -45.7380    7.0640 O   0  0  0  0  0  0  0  0  0  0  0  0
   -3.4110  -45.7500    7.6820 C   0  0  0  0  0  0  0  0  0  0  0  0
   -6.0060  -45.5600    8.7440 C   0  0  0  0  0  0  0  0  0  0  0  0
   -5.0380  -46.2950    9.3820 C   0  0  0  0  0  0  0  0  0  0  0  0
   -3.7220  -46.4010    8.8610 C   0  0  0  0  0  0  0  0  0  0  0  0
   -1.2850  -53.3200    7.7330 Cl  0  0  0  0  0  0  0  0  0  0  0  0
   -3.7080  -52.2800    6.7160 H   0  0  0  0  0  0  0  0  0  0  0  0
   -4.2690  -50.0730    5.7440 H   0  0  0  0  0  0  0  0  0  0  0  0
   -2.5470  -48.3340    5.4540 H   0  0  0  0  0  0  0  0  0  0  0  0
   -0.7980  -47.1830    5.0300 H   0  0  0  0  0  0  0  0  0  0  0  0
    1.0070  -47.0500    4.9800 H   0  0  0  0  0  0  0  0  0  0  0  0
    0.0570  -45.2390    6.3410 H   0  0  0  0  0  0  0  0  0  0  0  0
    1.0450  -46.3620    7.3820 H   0  0  0  0  0  0  0  0  0  0  0  0
   -0.9090  -45.8540    8.6850 H   0  0  0  0  0  0  0  0  0  0  0  0
   -1.3720  -47.4740    7.8940 H   0  0  0  0  0  0  0  0  0  0  0  0
   -3.0100  -47.0070    9.4120 H   0  0  0  0  0  0  0  0  0  0  0  0
   -5.7180  -44.9160    7.5010 C   0  0  0  0  0  0  0  0  0  0  0  0
   -4.4080  -44.9900    6.9590 C   0  0  0  0  0  0  0  0  0  0  0  0
   -4.1310  -44.3850    5.6990 C   0  0  0  0  0  0  0  0  0  0  0  0
   -5.1210  -43.7270    5.0090 C   0  0  0  0  0  0  0  0  0  0  0  0
   -6.4380  -43.6670    5.5380 C   0  0  0  0  0  0  0  0  0  0  0  0
   -6.7310  -44.2400    6.7520 C   0  0  0  0  0  0  0  0  0  0  0  0
   -3.1290  -44.4800    5.2780 H   0  0  0  0  0  0  0  0  0  0  0  0
   -4.9100  -43.2570    4.0500 H   0  0  0  0  0  0  0  0  0  0  0  0
   -7.2140  -43.1680    4.9620 H   0  0  0  0  0  0  0  0  0  0  0  0
   -7.7430  -44.2080    7.1520 H   0  0  0  0  0  0  0  0  0  0  0  0
   -5.2760  -46.8260   10.3070 H   0  0  0  0  0  0  0  0  0  0  0  0
   -7.0100  -45.4800    9.1570 H   0  0  0  0  0  0  0  0  0  0  0  0
  1  2  2  0  0  0  0
  2  3  1  0  0  0  0
  2  4  1  0  0  0  0
  4  5  1  0  0  0  0
  4 12  2  0  0  0  0
  5  6  1  0  0  0  0
  6  7  1  0  0  0  0
  6 11  2  0  0  0  0
  7  8  2  0  0  0  0
  7 21  1  0  0  0  0
  8  9  1  0  0  0  0
  8 22  1  0  0  0  0
  9 10  2  0  0  0  0
  9 23  1  0  0  0  0
 10 11  1  0  0  0  0
 10 24  1  0  0  0  0
 11 12  1  0  0  0  0
 12 13  1  0  0  0  0
 13 25  1  0  0  0  0
 13 26  1  0  0  0  0
 13 14  1  0  0  0  0
 14 15  1  0  0  0  0
 14 27  1  0  0  0  0
 14 28  1  0  0  0  0
 15 16  1  0  0  0  0
 15 29  1  0  0  0  0
 15 30  1  0  0  0  0
 16 17  1  0  0  0  0
 17 20  2  0  0  0  0
 17 33  1  0  0  0  0
 18 19  2  0  0  0  0
 18 32  1  0  0  0  0
 18 43  1  0  0  0  0
 19 20  1  0  0  0  0
 19 42  1  0  0  0  0
 20 31  1  0  0  0  0
 32 33  2  0  0  0  0
 32 37  1  0  0  0  0
 33 34  1  0  0  0  0
 34 35  2  0  0  0  0
 34 38  1  0  0  0  0
 35 36  1  0  0  0  0
 35 39  1  0  0  0  0
 36 37  2  0  0  0  0
 36 40  1  0  0  0  0
 37 41  1  0  0  0  0
M  CHG  1   3  -1
M  END
$$$$
