1oiy
 OpenBabel02232411153D
Structure written by MMmdl.
 49 52  0  0  0  0  0  0  0  0999 V2000
    2.0050   28.8580    6.7960 C   0  0  0  0  0  0  0  0  0  0  0  0
   -1.5310   31.3940    7.9250 C   0  0  0  0  0  0  0  0  0  0  0  0
    0.1140   25.9810    8.9690 C   0  0  0  0  0  0  0  0  0  0  0  0
   -0.7470   25.2520   10.0080 C   0  0  0  0  0  0  0  0  0  0  0  0
   -0.6060   23.7330    9.7620 C   0  0  0  0  0  0  0  0  0  0  0  0
   -1.3700   22.9280   10.8220 C   0  0  0  0  0  0  0  0  0  0  0  0
   -0.9330   23.3060   12.2470 C   0  0  0  0  0  0  0  0  0  0  0  0
   -1.0780   24.8160   12.4930 C   0  0  0  0  0  0  0  0  0  0  0  0
   -0.3180   25.6320   11.4380 C   0  0  0  0  0  0  0  0  0  0  0  0
    5.4650   25.7400    5.2640 C   0  0  0  0  0  0  0  0  0  0  0  0
    5.3480   24.8440    6.3380 C   0  0  0  0  0  0  0  0  0  0  0  0
    4.5620   25.1850    7.4480 C   0  0  0  0  0  0  0  0  0  0  0  0
    3.8580   26.3920    7.4740 C   0  0  0  0  0  0  0  0  0  0  0  0
    1.3140   27.8950    7.5240 N   0  0  0  0  0  0  0  0  0  0  0  0
    0.1050   28.2050    8.0610 C   0  0  0  0  0  0  0  0  0  0  0  0
   -0.5580   27.2960    8.7900 O   0  0  0  0  0  0  0  0  0  0  0  0
   -0.4510   29.4980    7.8700 C   0  0  0  0  0  0  0  0  0  0  0  0
   -1.6140   30.1250    8.3340 N   0  0  0  0  0  0  0  0  0  0  0  0
   -0.3180   31.6520    7.1920 N   0  0  0  0  0  0  0  0  0  0  0  0
    0.3660   30.4420    7.1260 C   0  0  0  0  0  0  0  0  0  0  0  0
    1.5710   30.1490    6.5380 N   0  0  0  0  0  0  0  0  0  0  0  0
    3.2540   28.5170    6.2870 N   0  0  0  0  0  0  0  0  0  0  0  0
    3.9260   27.2580    6.3700 C   0  0  0  0  0  0  0  0  0  0  0  0
    4.7640   26.9380    5.2770 C   0  0  0  0  0  0  0  0  0  0  0  0
   -2.2490   32.1880    8.1110 H   0  0  0  0  0  0  0  0  0  0  0  0
    1.1490   26.1570    9.3350 H   0  0  0  0  0  0  0  0  0  0  0  0
    0.0960   25.4890    7.9760 H   0  0  0  0  0  0  0  0  0  0  0  0
   -1.8180   25.5450    9.8750 H   0  0  0  0  0  0  0  0  0  0  0  0
   -1.0080   23.4840    8.7550 H   0  0  0  0  0  0  0  0  0  0  0  0
    0.4750   23.4510    9.8010 H   0  0  0  0  0  0  0  0  0  0  0  0
   -2.4580   23.1310   10.7170 H   0  0  0  0  0  0  0  0  0  0  0  0
   -1.1870   21.8400   10.6650 H   0  0  0  0  0  0  0  0  0  0  0  0
   -1.5600   22.7500   12.9820 H   0  0  0  0  0  0  0  0  0  0  0  0
    0.1330   23.0120   12.3930 H   0  0  0  0  0  0  0  0  0  0  0  0
   -2.1570   25.0910   12.4810 H   0  0  0  0  0  0  0  0  0  0  0  0
   -0.6680   25.0640   13.5000 H   0  0  0  0  0  0  0  0  0  0  0  0
    0.7760   25.4440   11.5660 H   0  0  0  0  0  0  0  0  0  0  0  0
   -0.5090   26.7170   11.6070 H   0  0  0  0  0  0  0  0  0  0  0  0
    6.1020   25.5070    4.4040 H   0  0  0  0  0  0  0  0  0  0  0  0
    4.4960   24.5120    8.3100 H   0  0  0  0  0  0  0  0  0  0  0  0
    3.2570   26.6440    8.3520 H   0  0  0  0  0  0  0  0  0  0  0  0
   -0.0710   32.5400    6.7300 H   0  0  0  0  0  0  0  0  0  0  0  0
    3.7040   29.1930    5.6200 H   0  0  0  0  0  0  0  0  0  0  0  0
    4.8780   27.6260    4.4400 H   0  0  0  0  0  0  0  0  0  0  0  0
    5.4330   22.4460    6.3920 O   0  0  0  0  0  0  0  0  0  0  0  0
    6.0170   23.5130    6.2420 C   0  0  0  0  0  0  0  0  0  0  0  0
    7.3940   23.5400    5.9970 N   0  0  0  0  0  0  0  0  0  0  0  0
    7.8520   24.4120    5.7030 H   0  0  0  0  0  0  0  0  0  0  0  0
    7.9010   22.6850    5.7450 H   0  0  0  0  0  0  0  0  0  0  0  0
  1 14  2  0  0  0  0
  1 21  1  0  0  0  0
  1 22  1  0  0  0  0
  2 18  2  0  0  0  0
  2 19  1  0  0  0  0
  2 25  1  0  0  0  0
  3  4  1  0  0  0  0
  3 16  1  0  0  0  0
  3 26  1  0  0  0  0
  3 27  1  0  0  0  0
  4  5  1  0  0  0  0
  4  9  1  0  0  0  0
  4 28  1  0  0  0  0
  5  6  1  0  0  0  0
  5 29  1  0  0  0  0
  5 30  1  0  0  0  0
  6  7  1  0  0  0  0
  6 31  1  0  0  0  0
  6 32  1  0  0  0  0
  7  8  1  0  0  0  0
  7 33  1  0  0  0  0
  7 34  1  0  0  0  0
  8  9  1  0  0  0  0
  8 35  1  0  0  0  0
  8 36  1  0  0  0  0
  9 37  1  0  0  0  0
  9 38  1  0  0  0  0
 10 11  2  0  0  0  0
 10 24  1  0  0  0  0
 10 39  1  0  0  0  0
 11 12  1  0  0  0  0
 11 46  1  0  0  0  0
 12 13  2  0  0  0  0
 12 40  1  0  0  0  0
 13 23  1  0  0  0  0
 13 41  1  0  0  0  0
 14 15  1  0  0  0  0
 15 16  1  0  0  0  0
 15 17  2  0  0  0  0
 17 18  1  0  0  0  0
 17 20  1  0  0  0  0
 19 20  1  0  0  0  0
 19 42  1  0  0  0  0
 20 21  2  0  0  0  0
 22 23  1  0  0  0  0
 22 43  1  0  0  0  0
 23 24  2  0  0  0  0
 24 44  1  0  0  0  0
 45 46  2  0  0  0  0
 46 47  1  0  0  0  0
 47 48  1  0  0  0  0
 47 49  1  0  0  0  0
M  END
$$$$
