18630-1
 OpenBabel02232411163D
Structure written by MMmdl.
 41 42  0  0  0  0  0  0  0  0999 V2000
   24.4740   11.0540   30.7890 C   0  0  0  0  0  0  0  0  0  0  0  0
   23.1350   11.2840   30.1220 C   0  0  0  0  0  0  0  0  0  0  0  0
   22.0550   11.3100   31.1300 O   0  0  0  0  0  0  0  0  0  0  0  0
   21.4830   10.1510   31.5260 C   0  0  0  0  0  0  0  0  0  0  0  0
   21.9650    8.9690   31.0760 N   0  0  0  0  0  0  0  0  0  0  0  0
   21.2750    7.8180   31.4310 C   0  0  0  0  0  0  0  0  0  0  0  0
   20.1460    7.8380   32.2440 C   0  0  0  0  0  0  0  0  0  0  0  0
   19.6530    9.0820   32.7200 C   0  0  0  0  0  0  0  0  0  0  0  0
   18.5170    9.1150   33.4890 N   0  0  0  0  0  0  0  0  0  0  0  0
   20.3360   10.2890   32.3650 C   0  0  0  0  0  0  0  0  0  0  0  0
   19.9200   11.5820   32.7460 C   0  0  0  0  0  0  0  0  0  0  0  0
   19.6300   12.6720   33.0180 N   0  0  0  0  0  0  0  0  0  0  0  0
   21.8490    6.6650   30.8450 N   0  0  0  0  0  0  0  0  0  0  0  0
   21.3160    5.3500   30.8350 C   0  0  0  0  0  0  0  0  0  0  0  0
   20.2920    5.0580   31.4150 O   0  0  0  0  0  0  0  0  0  0  0  0
   22.1240    4.3810   29.9850 C   0  0  0  0  0  0  0  0  0  0  0  0
   23.4160    3.9890   30.6500 C   0  0  0  0  0  0  0  0  0  0  0  0
   23.4700    2.8660   31.4890 C   0  0  0  0  0  0  0  0  0  0  0  0
   24.6610    2.5200   32.1280 C   0  0  0  0  0  0  0  0  0  0  0  0
   25.8270    3.2800   31.9300 C   0  0  0  0  0  0  0  0  0  0  0  0
   27.0970    2.8990   32.6160 C   0  0  0  0  0  0  0  0  0  0  0  0
   25.7760    4.3860   31.0670 C   0  0  0  0  0  0  0  0  0  0  0  0
   24.5840    4.7350   30.4300 C   0  0  0  0  0  0  0  0  0  0  0  0
   24.4870   10.0870   31.3450 H   0  0  0  0  0  0  0  0  0  0  0  0
   24.7200   11.8800   31.4900 H   0  0  0  0  0  0  0  0  0  0  0  0
   25.2710   11.0020   30.0050 H   0  0  0  0  0  0  0  0  0  0  0  0
   23.0350   12.3220   29.7200 H   0  0  0  0  0  0  0  0  0  0  0  0
   22.9100   10.5170   29.3470 H   0  0  0  0  0  0  0  0  0  0  0  0
   19.6210    6.9170   32.5050 H   0  0  0  0  0  0  0  0  0  0  0  0
   18.0230    8.2410   33.7550 H   0  0  0  0  0  0  0  0  0  0  0  0
   18.1120    9.9970   33.8010 H   0  0  0  0  0  0  0  0  0  0  0  0
   22.7290    6.8400   30.3190 H   0  0  0  0  0  0  0  0  0  0  0  0
   21.5020    3.4670   29.8010 H   0  0  0  0  0  0  0  0  0  0  0  0
   22.3380    4.8550   28.9900 H   0  0  0  0  0  0  0  0  0  0  0  0
   22.5850    2.2460   31.6460 H   0  0  0  0  0  0  0  0  0  0  0  0
   24.6880    1.6460   32.7850 H   0  0  0  0  0  0  0  0  0  0  0  0
   27.4680    1.9180   32.2240 H   0  0  0  0  0  0  0  0  0  0  0  0
   26.9360    2.7910   33.7180 H   0  0  0  0  0  0  0  0  0  0  0  0
   27.9010    3.6580   32.4580 H   0  0  0  0  0  0  0  0  0  0  0  0
   26.6750    4.9810   30.8830 H   0  0  0  0  0  0  0  0  0  0  0  0
   24.5840    5.5920   29.7520 H   0  0  0  0  0  0  0  0  0  0  0  0
  1  2  1  0  0  0  0
  1 24  1  0  0  0  0
  1 25  1  0  0  0  0
  1 26  1  0  0  0  0
  2  3  1  0  0  0  0
  2 27  1  0  0  0  0
  2 28  1  0  0  0  0
  3  4  1  0  0  0  0
  4 10  2  0  0  0  0
  4  5  1  0  0  0  0
  5  6  2  0  0  0  0
  6  7  1  0  0  0  0
  6 13  1  0  0  0  0
  7  8  2  0  0  0  0
  7 29  1  0  0  0  0
  8  9  1  0  0  0  0
  8 10  1  0  0  0  0
  9 30  1  0  0  0  0
  9 31  1  0  0  0  0
 10 11  1  0  0  0  0
 11 12  3  0  0  0  0
 13 14  1  0  0  0  0
 13 32  1  0  0  0  0
 14 15  2  0  0  0  0
 14 16  1  0  0  0  0
 16 17  1  0  0  0  0
 16 33  1  0  0  0  0
 16 34  1  0  0  0  0
 17 23  2  0  0  0  0
 17 18  1  0  0  0  0
 18 19  2  0  0  0  0
 18 35  1  0  0  0  0
 19 20  1  0  0  0  0
 19 36  1  0  0  0  0
 20 21  1  0  0  0  0
 20 22  2  0  0  0  0
 21 37  1  0  0  0  0
 21 38  1  0  0  0  0
 21 39  1  0  0  0  0
 22 23  1  0  0  0  0
 22 40  1  0  0  0  0
 23 41  1  0  0  0  0
M  END
$$$$
