3fmh
                    3D
 Schrodinger Suite 2022-3.
 46 49  0  0  1  0  0  0  0  0999 V2000
   15.9090   10.5190   31.6800 C   0  0  0  0  0  0  0  0  0  0  0  0
   21.3100   12.5620   31.3070 C   0  0  0  0  0  0  0  0  0  0  0  0
   17.1960   11.0320   31.8200 C   0  0  0  0  0  0  0  0  0  0  0  0
   23.8690    8.4720   31.0960 C   0  0  0  0  0  0  0  0  0  0  0  0
   26.3410    8.4660   31.5060 C   0  0  2  0  0  0  0  0  0  0  0  0
   21.4570    9.7370   30.7530 C   0  0  0  0  0  0  0  0  0  0  0  0
   20.1860   10.4040   30.6900 C   0  0  0  0  0  0  0  0  0  0  0  0
   15.2320   10.8300   30.4950 C   0  0  0  0  0  0  0  0  0  0  0  0
   15.7850   11.6160   29.4810 C   0  0  0  0  0  0  0  0  0  0  0  0
   17.0720   12.1370   29.6520 C   0  0  0  0  0  0  0  0  0  0  0  0
   22.6140   10.4520   31.1800 C   0  0  0  0  0  0  0  0  0  0  0  0
   21.6270    8.3660   30.4290 C   0  0  0  0  0  0  0  0  0  0  0  0
   20.1240   11.7200   30.9950 C   0  0  0  0  0  0  0  0  0  0  0  0
   17.7690   11.8580   30.8310 C   0  0  0  0  0  0  0  0  0  0  0  0
   23.7800   12.5530   31.8420 C   0  0  0  0  0  0  0  0  0  0  0  0
   17.9100   10.7290   32.8970 F   0  0  0  0  0  0  0  0  0  0  0  0
   14.0120   10.3280   30.3180 F   0  0  0  0  0  0  0  0  0  0  0  0
   18.9850   12.5170   31.0610 O   0  0  0  0  0  0  0  0  0  0  0  0
   22.7940    7.7230   30.5900 N   0  0  0  0  0  0  0  0  0  0  0  0
   21.3090   13.7640   31.4590 O   0  0  0  0  0  0  0  0  0  0  0  0
   22.5400   11.8280   31.4410 N   0  0  0  0  0  0  0  0  0  0  0  0
   23.8260    9.8240   31.3430 N   0  0  0  0  0  0  0  0  0  0  0  0
   25.0200    7.7640   31.4330 N   0  0  0  0  0  0  0  0  0  0  0  0
   15.2380   11.8140   28.5580 H   0  0  0  0  0  0  0  0  0  0  0  0
   17.5260   12.7460   28.8640 H   0  0  0  0  0  0  0  0  0  0  0  0
   15.4700    9.8740   32.4420 H   0  0  0  0  0  0  0  0  0  0  0  0
   19.3120    9.8160   30.4040 H   0  0  0  0  0  0  0  0  0  0  0  0
   20.7850    7.7880   30.0170 H   0  0  0  0  0  0  0  0  0  0  0  0
   26.2050    9.4410   32.0520 H   0  0  0  0  0  0  0  0  0  0  0  0
   24.2670   12.0260   32.7070 H   0  0  0  0  0  0  0  0  0  0  0  0
   24.5050   12.5680   30.9830 H   0  0  0  0  0  0  0  0  0  0  0  0
   23.5350   13.6050   32.1370 H   0  0  0  0  0  0  0  0  0  0  0  0
   25.0990    6.7970   31.0420 H   0  0  0  0  0  0  0  0  0  0  0  0
   26.9030    8.7100   30.1040 C   0  0  0  0  0  0  0  0  0  0  0  0
   26.9140    7.7600   29.5210 H   0  0  0  0  0  0  0  0  0  0  0  0
   26.2760    9.4540   29.5610 H   0  0  0  0  0  0  0  0  0  0  0  0
   27.9400    9.1080   30.1550 H   0  0  0  0  0  0  0  0  0  0  0  0
   27.2550    7.5230   32.3500 C   0  0  0  0  0  0  0  0  0  0  0  0
   27.5200    6.6050   31.7500 H   0  0  0  0  0  0  0  0  0  0  0  0
   26.6990    7.1950   33.2770 H   0  0  0  0  0  0  0  0  0  0  0  0
   28.4950    8.2130   32.7610 N   0  0  3  0  0  0  0  0  0  0  0  0
   29.7030    7.9990   32.1680 N   0  0  0  0  0  0  0  0  0  0  0  0
   30.5540    8.8360   32.8260 C   0  0  0  0  0  0  0  0  0  0  0  0
   29.8260    9.5490   33.8160 N   0  0  0  0  0  0  0  0  0  0  0  0
   28.5930    9.1570   33.7540 N   0  0  0  0  0  0  0  0  0  0  0  0
   31.6210    8.9480   32.6410 H   0  0  0  0  0  0  0  0  0  0  0  0
  1  3  1  0  0  0  0
  1  8  2  0  0  0  0
  1 26  1  0  0  0  0
  2 13  1  0  0  0  0
  2 20  2  0  0  0  0
  2 21  1  0  0  0  0
  3 14  2  0  0  0  0
  3 16  1  0  0  0  0
  4 19  1  0  0  0  0
  4 22  2  0  0  0  0
  4 23  1  0  0  0  0
  5 23  1  0  0  0  0
  5 29  1  0  0  0  0
  5 34  1  0  0  0  0
  5 38  1  0  0  0  0
  6  7  1  0  0  0  0
  6 11  2  0  0  0  0
  6 12  1  0  0  0  0
  7 13  2  0  0  0  0
  7 27  1  0  0  0  0
  8  9  1  0  0  0  0
  8 17  1  0  0  0  0
  9 10  2  0  0  0  0
  9 24  1  0  0  0  0
 10 14  1  0  0  0  0
 10 25  1  0  0  0  0
 11 21  1  0  0  0  0
 11 22  1  0  0  0  0
 12 19  2  0  0  0  0
 12 28  1  0  0  0  0
 13 18  1  0  0  0  0
 14 18  1  0  0  0  0
 15 21  1  0  0  0  0
 15 30  1  0  0  0  0
 15 31  1  0  0  0  0
 15 32  1  0  0  0  0
 23 33  1  0  0  0  0
 34 35  1  0  0  0  0
 34 36  1  0  0  0  0
 34 37  1  0  0  0  0
 38 39  1  0  0  0  0
 38 40  1  0  0  0  0
 38 41  1  0  0  0  0
 41 42  1  0  0  0  0
 41 45  1  0  0  0  0
 42 43  2  0  0  0  0
 43 44  1  0  0  0  0
 43 46  1  0  0  0  0
 44 45  2  0  0  0  0
M  END
$$$$
