ejm_46
 OpenBabel02232411173D
Structure written by MMmdl.
 36 38  0  0  0  0  0  0  0  0999 V2000
   -1.5140   21.5060  -27.5890 C   0  0  0  0  0  0  0  0  0  0  0  0
   -1.0490   22.5850  -28.3450 C   0  0  0  0  0  0  0  0  0  0  0  0
   -1.8590   23.1150  -29.3520 C   0  0  0  0  0  0  0  0  0  0  0  0
   -3.1240   22.5880  -29.6360 C   0  0  0  0  0  0  0  0  0  0  0  0
   -3.5730   21.5170  -28.8470 C   0  0  0  0  0  0  0  0  0  0  0  0
   -2.7830   20.9730  -27.8340 C   0  0  0  0  0  0  0  0  0  0  0  0
   -5.1290   20.8630  -29.1390 Cl  0  0  0  0  0  0  0  0  0  0  0  0
   -3.9970   23.0660  -30.7610 C   0  0  0  0  0  0  0  0  0  0  0  0
   -4.3910   22.3300  -31.6390 O   0  0  0  0  0  0  0  0  0  0  0  0
   -4.3350   24.4310  -30.6660 N   0  0  0  0  0  0  0  0  0  0  0  0
   -5.1890   25.1610  -31.5410 C   0  0  0  0  0  0  0  0  0  0  0  0
   -5.8620   24.5930  -32.6340 C   0  0  0  0  0  0  0  0  0  0  0  0
   -6.7180   25.4120  -33.3850 C   0  0  0  0  0  0  0  0  0  0  0  0
   -6.9180   26.7290  -33.1240 N   0  0  0  0  0  0  0  0  0  0  0  0
   -6.2330   27.2760  -32.0570 C   0  0  0  0  0  0  0  0  0  0  0  0
   -5.3670   26.5290  -31.2480 C   0  0  0  0  0  0  0  0  0  0  0  0
   -6.4920   28.6590  -31.8350 N   0  0  0  0  0  0  0  0  0  0  0  0
   -5.7140   29.5220  -31.0210 C   0  0  0  0  0  0  0  0  0  0  0  0
   -4.7660   29.0980  -30.3840 O   0  0  0  0  0  0  0  0  0  0  0  0
   -6.1630   30.9480  -31.0270 C   0  0  0  0  0  0  0  0  0  0  0  0
   -5.8300   31.8410  -29.8320 C   0  0  0  0  0  0  0  0  0  0  0  0
   -5.0990   32.0410  -31.1350 C   0  0  0  0  0  0  0  0  0  0  0  0
   -4.0420   31.7550  -31.2080 H   0  0  0  0  0  0  0  0  0  0  0  0
   -1.2620   24.4610  -30.2290 Cl  0  0  0  0  0  0  0  0  0  0  0  0
   -7.1230   31.1420  -31.5350 H   0  0  0  0  0  0  0  0  0  0  0  0
   -5.3470   32.9220  -31.7430 H   0  0  0  0  0  0  0  0  0  0  0  0
   -0.8830   21.0820  -26.7990 H   0  0  0  0  0  0  0  0  0  0  0  0
   -0.0620   23.0070  -28.1320 H   0  0  0  0  0  0  0  0  0  0  0  0
   -3.1390   20.1440  -27.2200 H   0  0  0  0  0  0  0  0  0  0  0  0
   -3.9360   24.9690  -29.8750 H   0  0  0  0  0  0  0  0  0  0  0  0
   -5.7510   23.5380  -32.8990 H   0  0  0  0  0  0  0  0  0  0  0  0
   -7.2790   24.9990  -34.2400 H   0  0  0  0  0  0  0  0  0  0  0  0
   -4.8360   26.9960  -30.4120 H   0  0  0  0  0  0  0  0  0  0  0  0
   -7.3730   29.0330  -32.2520 H   0  0  0  0  0  0  0  0  0  0  0  0
   -6.5880   32.5820  -29.5350 H   0  0  0  0  0  0  0  0  0  0  0  0
   -5.2890   31.4220  -28.9740 H   0  0  0  0  0  0  0  0  0  0  0  0
  1  2  2  0  0  0  0
  1  6  1  0  0  0  0
  1 27  1  0  0  0  0
  2  3  1  0  0  0  0
  2 28  1  0  0  0  0
  3  4  2  0  0  0  0
  3 24  1  0  0  0  0
  4  5  1  0  0  0  0
  4  8  1  0  0  0  0
  5  6  2  0  0  0  0
  5  7  1  0  0  0  0
  6 29  1  0  0  0  0
  8  9  2  0  0  0  0
  8 10  1  0  0  0  0
 10 11  1  0  0  0  0
 10 30  1  0  0  0  0
 11 12  2  0  0  0  0
 11 16  1  0  0  0  0
 12 13  1  0  0  0  0
 12 31  1  0  0  0  0
 13 14  2  0  0  0  0
 13 32  1  0  0  0  0
 14 15  1  0  0  0  0
 15 16  2  0  0  0  0
 15 17  1  0  0  0  0
 16 33  1  0  0  0  0
 17 18  1  0  0  0  0
 17 34  1  0  0  0  0
 18 19  2  0  0  0  0
 18 20  1  0  0  0  0
 20 21  1  0  0  0  0
 20 22  1  0  0  0  0
 20 25  1  0  0  0  0
 21 22  1  0  0  0  0
 21 35  1  0  0  0  0
 21 36  1  0  0  0  0
 22 23  1  0  0  0  0
 22 26  1  0  0  0  0
M  END
$$$$
