18639-1
 OpenBabel02232411163D
Structure written by MMmdl.
 48 49  0  0  0  0  0  0  0  0999 V2000
   23.1840   10.7900   29.0660 C   0  0  0  0  0  0  0  0  0  0  0  0
   23.4650   11.0420   30.5320 C   0  0  0  0  0  0  0  0  0  0  0  0
   22.2030   11.1510   31.2950 O   0  0  0  0  0  0  0  0  0  0  0  0
   21.5460   10.0220   31.6420 C   0  0  0  0  0  0  0  0  0  0  0  0
   22.0150    8.8250   31.2210 N   0  0  0  0  0  0  0  0  0  0  0  0
   21.2720    7.6990   31.5360 C   0  0  0  0  0  0  0  0  0  0  0  0
   20.1070    7.7520   32.2930 C   0  0  0  0  0  0  0  0  0  0  0  0
   19.6350    9.0110   32.7540 C   0  0  0  0  0  0  0  0  0  0  0  0
   18.4830    9.0680   33.4950 N   0  0  0  0  0  0  0  0  0  0  0  0
   20.3630   10.1980   32.4200 C   0  0  0  0  0  0  0  0  0  0  0  0
   19.9670   11.5040   32.7810 C   0  0  0  0  0  0  0  0  0  0  0  0
   19.6920   12.6010   33.0360 N   0  0  0  0  0  0  0  0  0  0  0  0
   21.8470    6.5320   30.9810 N   0  0  0  0  0  0  0  0  0  0  0  0
   21.2470    5.2600   30.8860 C   0  0  0  0  0  0  0  0  0  0  0  0
   20.1540    5.0120   31.3490 O   0  0  0  0  0  0  0  0  0  0  0  0
   22.0710    4.2630   30.0800 C   0  0  0  0  0  0  0  0  0  0  0  0
   23.4390    3.9950   30.6370 C   0  0  0  0  0  0  0  0  0  0  0  0
   24.5340    4.8570   30.3180 C   0  0  0  0  0  0  0  0  0  0  0  0
   24.1770    5.9030   29.4760 O   0  0  0  0  0  0  0  0  0  0  0  0
   25.1290    6.9920   29.3150 C   0  0  0  0  0  0  0  0  0  0  0  0
   25.8130    4.6190   30.7970 C   0  0  0  0  0  0  0  0  0  0  0  0
   26.0440    3.5050   31.6320 C   0  0  0  0  0  0  0  0  0  0  0  0
   27.3960    3.2530   32.1380 N   0  3  0  0  0  0  0  0  0  0  0  0
   27.5280    2.4670   33.0630 O   0  5  0  0  0  0  0  0  0  0  0  0
   28.3370    3.8330   31.6090 O   0  0  0  0  0  0  0  0  0  0  0  0
   24.9730    2.6390   31.9530 C   0  0  0  0  0  0  0  0  0  0  0  0
   23.6790    2.8910   31.4390 C   0  0  0  0  0  0  0  0  0  0  0  0
   25.3200    1.6050   32.7690 O   0  0  0  0  0  0  0  0  0  0  0  0
   24.3210    0.5690   33.0120 C   0  0  0  0  0  0  0  0  0  0  0  0
   24.1430   10.8480   28.4930 H   0  0  0  0  0  0  0  0  0  0  0  0
   22.4870   11.5510   28.6500 H   0  0  0  0  0  0  0  0  0  0  0  0
   22.7450    9.7780   28.9070 H   0  0  0  0  0  0  0  0  0  0  0  0
   23.8730   12.0650   30.7150 H   0  0  0  0  0  0  0  0  0  0  0  0
   24.1030   10.2460   30.9810 H   0  0  0  0  0  0  0  0  0  0  0  0
   19.5410    6.8470   32.5220 H   0  0  0  0  0  0  0  0  0  0  0  0
   17.9780    8.2000   33.7620 H   0  0  0  0  0  0  0  0  0  0  0  0
   18.0890    9.9570   33.8010 H   0  0  0  0  0  0  0  0  0  0  0  0
   22.7680    6.6800   30.4960 H   0  0  0  0  0  0  0  0  0  0  0  0
   21.4980    3.3000   30.0170 H   0  0  0  0  0  0  0  0  0  0  0  0
   22.1810    4.6800   29.0380 H   0  0  0  0  0  0  0  0  0  0  0  0
   25.4400    7.3900   30.3040 H   0  0  0  0  0  0  0  0  0  0  0  0
   25.9880    6.6370   28.7070 H   0  0  0  0  0  0  0  0  0  0  0  0
   24.5130    7.7370   28.7590 H   0  0  0  0  0  0  0  0  0  0  0  0
   26.6530    5.2720   30.5290 H   0  0  0  0  0  0  0  0  0  0  0  0
   22.8630    2.2020   31.6730 H   0  0  0  0  0  0  0  0  0  0  0  0
   24.9050   -0.1610   33.6220 H   0  0  0  0  0  0  0  0  0  0  0  0
   23.4720    0.9860   33.5950 H   0  0  0  0  0  0  0  0  0  0  0  0
   23.9980    0.1160   32.0500 H   0  0  0  0  0  0  0  0  0  0  0  0
  1  2  1  0  0  0  0
  1 30  1  0  0  0  0
  1 31  1  0  0  0  0
  1 32  1  0  0  0  0
  2  3  1  0  0  0  0
  2 33  1  0  0  0  0
  2 34  1  0  0  0  0
  3  4  1  0  0  0  0
  4 10  2  0  0  0  0
  4  5  1  0  0  0  0
  5  6  2  0  0  0  0
  6  7  1  0  0  0  0
  6 13  1  0  0  0  0
  7  8  2  0  0  0  0
  7 35  1  0  0  0  0
  8  9  1  0  0  0  0
  8 10  1  0  0  0  0
  9 36  1  0  0  0  0
  9 37  1  0  0  0  0
 10 11  1  0  0  0  0
 11 12  3  0  0  0  0
 13 14  1  0  0  0  0
 13 38  1  0  0  0  0
 14 15  2  0  0  0  0
 14 16  1  0  0  0  0
 16 17  1  0  0  0  0
 16 39  1  0  0  0  0
 16 40  1  0  0  0  0
 17 27  2  0  0  0  0
 17 18  1  0  0  0  0
 18 19  1  0  0  0  0
 18 21  2  0  0  0  0
 19 20  1  0  0  0  0
 20 41  1  0  0  0  0
 20 42  1  0  0  0  0
 20 43  1  0  0  0  0
 21 22  1  0  0  0  0
 21 44  1  0  0  0  0
 22 23  1  0  0  0  0
 22 26  2  0  0  0  0
 23 24  1  0  0  0  0
 23 25  2  0  0  0  0
 26 27  1  0  0  0  0
 26 28  1  0  0  0  0
 27 45  1  0  0  0  0
 28 29  1  0  0  0  0
 29 46  1  0  0  0  0
 29 47  1  0  0  0  0
 29 48  1  0  0  0  0
M  CHG  2  23   1  24  -1
M  END
$$$$
